
     RDKit          3D

 25 26  0  0  0  0  0  0  0  0999 V2000
   -3.2146   -1.8671   -0.0005 C   0  0  0  0  0  0  0  0  0  0  0  0
   -3.0392   -0.4445   -0.0003 N   0  0  0  0  0  0  0  0  0  0  0  0
   -4.0928    0.3436   -0.0001 N   0  0  0  0  0  0  0  0  0  0  0  0
   -3.6399    1.5876    0.0006 C   0  0  0  0  0  0  0  0  0  0  0  0
   -2.2475    1.6033    0.0007 C   0  0  0  0  0  0  0  0  0  0  0  0
   -1.8772    0.2598    0.0001 C   0  0  0  0  0  0  0  0  0  0  0  0
   -0.5634   -0.3975    0.0001 C   0  0  0  0  0  0  0  0  0  0  0  0
   -0.4262   -1.6061    0.0019 O   0  0  0  0  0  0  0  0  0  0  0  0
    0.4768    0.4933   -0.0021 N   0  0  0  0  0  0  0  0  0  0  0  0
    1.8440    0.2303   -0.0012 C   0  0  0  0  0  0  0  0  0  0  0  0
    2.3935   -1.0505   -0.0011 C   0  0  0  0  0  0  0  0  0  0  0  0
    3.7722   -1.1755    0.0001 C   0  0  0  0  0  0  0  0  0  0  0  0
    4.5529   -0.0301    0.0011 C   0  0  0  0  0  0  0  0  0  0  0  0
    4.0377    1.1888    0.0008 N   0  0  0  0  0  0  0  0  0  0  0  0
    2.7279    1.3141   -0.0003 C   0  0  0  0  0  0  0  0  0  0  0  0
    2.3526    2.3313   -0.0006 H   0  0  0  0  0  0  0  0  0  0  0  0
    5.6330   -0.0806    0.0022 H   0  0  0  0  0  0  0  0  0  0  0  0
    4.2296   -2.1526   -0.0001 H   0  0  0  0  0  0  0  0  0  0  0  0
    1.7527   -1.9165   -0.0021 H   0  0  0  0  0  0  0  0  0  0  0  0
    0.2378    1.4748   -0.0032 H   0  0  0  0  0  0  0  0  0  0  0  0
   -1.6218    2.4735    0.0014 H   0  0  0  0  0  0  0  0  0  0  0  0
   -4.3212    2.4142    0.0010 H   0  0  0  0  0  0  0  0  0  0  0  0
   -4.2852   -2.0608   -0.0025 H   0  0  0  0  0  0  0  0  0  0  0  0
   -2.7528   -2.3090    0.8828 H   0  0  0  0  0  0  0  0  0  0  0  0
   -2.7494   -2.3091   -0.8819 H   0  0  0  0  0  0  0  0  0  0  0  0
  1  2  1  0
  1 23  1  0
  1 24  1  0
  1 25  1  0
  2  3  1  0
  2  6  1  0
  3  4  2  0
  4  5  1  0
  4 22  1  0
  5  6  2  0
  5 21  1  0
  6  7  1  0
  7  8  2  0
  7  9  1  0
  9 10  1  0
  9 20  1  0
 10 11  2  0
 10 15  1  0
 11 12  1  0
 11 19  1  0
 12 13  2  0
 12 18  1  0
 13 14  1  0
 13 17  1  0
 14 15  2  0
 15 16  1  0
M  END
$$$$

     RDKit          3D

 25 26  0  0  0  0  0  0  0  0999 V2000
   -3.2985   -1.8507    0.0457 C   0  0  0  0  0  0  0  0  0  0  0  0
   -3.0590   -0.4348    0.0163 N   0  0  0  0  0  0  0  0  0  0  0  0
   -4.0894    0.3856    0.0177 N   0  0  0  0  0  0  0  0  0  0  0  0
   -3.6027    1.6149   -0.0125 C   0  0  0  0  0  0  0  0  0  0  0  0
   -2.2110    1.5896   -0.0325 C   0  0  0  0  0  0  0  0  0  0  0  0
   -1.8763    0.2356   -0.0127 C   0  0  0  0  0  0  0  0  0  0  0  0
   -0.5593   -0.4209   -0.0190 C   0  0  0  0  0  0  0  0  0  0  0  0
   -0.4032   -1.6285   -0.0366 O   0  0  0  0  0  0  0  0  0  0  0  0
    0.4753    0.4739   -0.0021 N   0  0  0  0  0  0  0  0  0  0  0  0
    1.8445    0.2190   -0.0002 C   0  0  0  0  0  0  0  0  0  0  0  0
    2.4050   -1.0568   -0.0175 C   0  0  0  0  0  0  0  0  0  0  0  0
    3.7848   -1.1701   -0.0114 C   0  0  0  0  0  0  0  0  0  0  0  0
    4.5557   -0.0183    0.0113 C   0  0  0  0  0  0  0  0  0  0  0  0
    4.0300    1.1961    0.0271 N   0  0  0  0  0  0  0  0  0  0  0  0
    2.7194    1.3101    0.0215 C   0  0  0  0  0  0  0  0  0  0  0  0
    2.3356    2.3240    0.0352 H   0  0  0  0  0  0  0  0  0  0  0  0
    5.6362   -0.0596    0.0172 H   0  0  0  0  0  0  0  0  0  0  0  0
    4.2504   -2.1431   -0.0240 H   0  0  0  0  0  0  0  0  0  0  0  0
    1.7725   -1.9286   -0.0349 H   0  0  0  0  0  0  0  0  0  0  0  0
    0.2334    1.4543    0.0148 H   0  0  0  0  0  0  0  0  0  0  0  0
   -1.5649    2.4442   -0.0613 H   0  0  0  0  0  0  0  0  0  0  0  0
   -4.2599    2.4608   -0.0178 H   0  0  0  0  0  0  0  0  0  0  0  0
   -3.8923   -2.0975    0.9264 H   0  0  0  0  0  0  0  0  0  0  0  0
   -2.3478   -2.3766    0.0729 H   0  0  0  0  0  0  0  0  0  0  0  0
   -3.8600   -2.1419   -0.8429 H   0  0  0  0  0  0  0  0  0  0  0  0
  1  2  1  0
  1 23  1  0
  1 24  1  0
  1 25  1  0
  2  3  1  0
  2  6  1  0
  3  4  2  0
  4  5  1  0
  4 22  1  0
  5  6  2  0
  5 21  1  0
  6  7  1  0
  7  8  2  0
  7  9  1  0
  9 10  1  0
  9 20  1  0
 10 11  2  0
 10 15  1  0
 11 12  1  0
 11 19  1  0
 12 13  2  0
 12 18  1  0
 13 14  1  0
 13 17  1  0
 14 15  2  0
 15 16  1  0
M  END
$$$$

     RDKit          3D

 25 26  0  0  0  0  0  0  0  0999 V2000
    3.1781    1.8864    0.0030 C   0  0  0  0  0  0  0  0  0  0  0  0
    3.0271    0.4611    0.0010 N   0  0  0  0  0  0  0  0  0  0  0  0
    4.0938   -0.3091    0.0008 N   0  0  0  0  0  0  0  0  0  0  0  0
    3.6621   -1.5606   -0.0011 C   0  0  0  0  0  0  0  0  0  0  0  0
    2.2701   -1.5996   -0.0021 C   0  0  0  0  0  0  0  0  0  0  0  0
    1.8771   -0.2625   -0.0007 C   0  0  0  0  0  0  0  0  0  0  0  0
    0.5530    0.3748   -0.0009 C   0  0  0  0  0  0  0  0  0  0  0  0
    0.3972    1.5801   -0.0017 O   0  0  0  0  0  0  0  0  0  0  0  0
   -0.4729   -0.5332   -0.0001 N   0  0  0  0  0  0  0  0  0  0  0  0
   -1.8441   -0.2931    0.0000 C   0  0  0  0  0  0  0  0  0  0  0  0
   -2.7087   -1.3882    0.0018 C   0  0  0  0  0  0  0  0  0  0  0  0
   -4.0732   -1.1702    0.0020 C   0  0  0  0  0  0  0  0  0  0  0  0
   -4.5295    0.1401    0.0004 C   0  0  0  0  0  0  0  0  0  0  0  0
   -3.7178    1.1824   -0.0014 N   0  0  0  0  0  0  0  0  0  0  0  0
   -2.4153    0.9835   -0.0015 C   0  0  0  0  0  0  0  0  0  0  0  0
   -1.7968    1.8676   -0.0030 H   0  0  0  0  0  0  0  0  0  0  0  0
   -5.5868    0.3674    0.0005 H   0  0  0  0  0  0  0  0  0  0  0  0
   -4.7646   -1.9985    0.0034 H   0  0  0  0  0  0  0  0  0  0  0  0
   -2.3093   -2.3942    0.0031 H   0  0  0  0  0  0  0  0  0  0  0  0
   -0.2149   -1.5104    0.0010 H   0  0  0  0  0  0  0  0  0  0  0  0
    1.6596   -2.4805   -0.0038 H   0  0  0  0  0  0  0  0  0  0  0  0
    4.3573   -2.3756   -0.0017 H   0  0  0  0  0  0  0  0  0  0  0  0
    4.2453    2.0984    0.0051 H   0  0  0  0  0  0  0  0  0  0  0  0
    2.7051    2.3194    0.8847 H   0  0  0  0  0  0  0  0  0  0  0  0
    2.7083    2.3215   -0.8795 H   0  0  0  0  0  0  0  0  0  0  0  0
  1  2  1  0
  1 23  1  0
  1 24  1  0
  1 25  1  0
  2  3  1  0
  2  6  1  0
  3  4  2  0
  4  5  1  0
  4 22  1  0
  5  6  2  0
  5 21  1  0
  6  7  1  0
  7  8  2  0
  7  9  1  0
  9 10  1  0
  9 20  1  0
 10 11  2  0
 10 15  1  0
 11 12  1  0
 11 19  1  0
 12 13  2  0
 12 18  1  0
 13 14  1  0
 13 17  1  0
 14 15  2  0
 15 16  1  0
M  END
$$$$

     RDKit          3D

 25 26  0  0  0  0  0  0  0  0999 V2000
   -3.2604   -1.8701    0.1061 C   0  0  0  0  0  0  0  0  0  0  0  0
   -3.0467   -0.4515    0.0343 N   0  0  0  0  0  0  0  0  0  0  0  0
   -4.0911    0.3508    0.0258 N   0  0  0  0  0  0  0  0  0  0  0  0
   -3.6263    1.5870   -0.0425 C   0  0  0  0  0  0  0  0  0  0  0  0
   -2.2347    1.5850   -0.0756 C   0  0  0  0  0  0  0  0  0  0  0  0
   -1.8763    0.2379   -0.0232 C   0  0  0  0  0  0  0  0  0  0  0  0
   -0.5487   -0.3979   -0.0299 C   0  0  0  0  0  0  0  0  0  0  0  0
   -0.3736   -1.6014   -0.0636 O   0  0  0  0  0  0  0  0  0  0  0  0
    0.4710    0.5141    0.0061 N   0  0  0  0  0  0  0  0  0  0  0  0
    1.8442    0.2821    0.0068 C   0  0  0  0  0  0  0  0  0  0  0  0
    2.6995    1.3829    0.0667 C   0  0  0  0  0  0  0  0  0  0  0  0
    4.0658    1.1766    0.0680 C   0  0  0  0  0  0  0  0  0  0  0  0
    4.5334   -0.1284    0.0088 C   0  0  0  0  0  0  0  0  0  0  0  0
    3.7307   -1.1759   -0.0485 N   0  0  0  0  0  0  0  0  0  0  0  0
    2.4264   -0.9881   -0.0501 C   0  0  0  0  0  0  0  0  0  0  0  0
    1.8166   -1.8768   -0.0979 H   0  0  0  0  0  0  0  0  0  0  0  0
    5.5925   -0.3468    0.0077 H   0  0  0  0  0  0  0  0  0  0  0  0
    4.7500    2.0097    0.1140 H   0  0  0  0  0  0  0  0  0  0  0  0
    2.2917    2.3846    0.1113 H   0  0  0  0  0  0  0  0  0  0  0  0
    0.2097    1.4894    0.0459 H   0  0  0  0  0  0  0  0  0  0  0  0
   -1.6037    2.4491   -0.1389 H   0  0  0  0  0  0  0  0  0  0  0  0
   -4.2983    2.4210   -0.0646 H   0  0  0  0  0  0  0  0  0  0  0  0
   -2.3002   -2.3792    0.1215 H   0  0  0  0  0  0  0  0  0  0  0  0
   -3.8386   -2.1930   -0.7604 H   0  0  0  0  0  0  0  0  0  0  0  0
   -3.8275   -2.1046    1.0075 H   0  0  0  0  0  0  0  0  0  0  0  0
  1  2  1  0
  1 23  1  0
  1 24  1  0
  1 25  1  0
  2  3  1  0
  2  6  1  0
  3  4  2  0
  4  5  1  0
  4 22  1  0
  5  6  2  0
  5 21  1  0
  6  7  1  0
  7  8  2  0
  7  9  1  0
  9 10  1  0
  9 20  1  0
 10 11  2  0
 10 15  1  0
 11 12  1  0
 11 19  1  0
 12 13  2  0
 12 18  1  0
 13 14  1  0
 13 17  1  0
 14 15  2  0
 15 16  1  0
M  END
$$$$

     RDKit          3D

 25 26  0  0  0  0  0  0  0  0999 V2000
   -3.4385   -0.3499    1.0816 C   0  0  0  0  0  0  0  0  0  0  0  0
   -2.5483    0.3773    0.2226 N   0  0  0  0  0  0  0  0  0  0  0  0
   -2.8300    1.6150   -0.1339 N   0  0  0  0  0  0  0  0  0  0  0  0
   -1.8325    2.0261   -0.8998 C   0  0  0  0  0  0  0  0  0  0  0  0
   -0.8646    1.0311   -1.0270 C   0  0  0  0  0  0  0  0  0  0  0  0
   -1.3524   -0.0310   -0.2726 C   0  0  0  0  0  0  0  0  0  0  0  0
   -0.8536   -1.4056   -0.1357 C   0  0  0  0  0  0  0  0  0  0  0  0
   -1.5871   -2.3760   -0.0838 O   0  0  0  0  0  0  0  0  0  0  0  0
    0.5039   -1.5764   -0.1642 N   0  0  0  0  0  0  0  0  0  0  0  0
    1.5311   -0.6557    0.0376 C   0  0  0  0  0  0  0  0  0  0  0  0
    1.4144    0.4325    0.9013 C   0  0  0  0  0  0  0  0  0  0  0  0
    2.4943    1.2845    1.0467 C   0  0  0  0  0  0  0  0  0  0  0  0
    3.6574    1.0150    0.3397 C   0  0  0  0  0  0  0  0  0  0  0  0
    3.7885   -0.0357   -0.4517 N   0  0  0  0  0  0  0  0  0  0  0  0
    2.7620   -0.8477   -0.5954 C   0  0  0  0  0  0  0  0  0  0  0  0
    2.9174   -1.6977   -1.2481 H   0  0  0  0  0  0  0  0  0  0  0  0
    4.5248    1.6556    0.4155 H   0  0  0  0  0  0  0  0  0  0  0  0
    2.4346    2.1360    1.7061 H   0  0  0  0  0  0  0  0  0  0  0  0
    0.5010    0.6012    1.4511 H   0  0  0  0  0  0  0  0  0  0  0  0
    0.7908   -2.5360   -0.3179 H   0  0  0  0  0  0  0  0  0  0  0  0
    0.0428    1.0677   -1.5943 H   0  0  0  0  0  0  0  0  0  0  0  0
   -1.8447    3.0087   -1.3262 H   0  0  0  0  0  0  0  0  0  0  0  0
   -3.0921   -0.3128    2.1174 H   0  0  0  0  0  0  0  0  0  0  0  0
   -3.4892   -1.3890    0.7600 H   0  0  0  0  0  0  0  0  0  0  0  0
   -4.4185    0.1178    1.0176 H   0  0  0  0  0  0  0  0  0  0  0  0
  1  2  1  0
  1 23  1  0
  1 24  1  0
  1 25  1  0
  2  3  1  0
  2  6  1  0
  3  4  2  0
  4  5  1  0
  4 22  1  0
  5  6  2  0
  5 21  1  0
  6  7  1  0
  7  8  2  0
  7  9  1  0
  9 10  1  0
  9 20  1  0
 10 11  2  0
 10 15  1  0
 11 12  1  0
 11 19  1  0
 12 13  2  0
 12 18  1  0
 13 14  1  0
 13 17  1  0
 14 15  2  0
 15 16  1  0
M  END
$$$$

     RDKit          3D

 25 26  0  0  0  0  0  0  0  0999 V2000
   -3.4059   -0.3111   -1.1120 C   0  0  0  0  0  0  0  0  0  0  0  0
   -2.5231    0.3906   -0.2249 N   0  0  0  0  0  0  0  0  0  0  0  0
   -2.7974    1.6245    0.1485 N   0  0  0  0  0  0  0  0  0  0  0  0
   -1.8051    2.0140    0.9323 C   0  0  0  0  0  0  0  0  0  0  0  0
   -0.8487    1.0079    1.0551 C   0  0  0  0  0  0  0  0  0  0  0  0
   -1.3375   -0.0375    0.2782 C   0  0  0  0  0  0  0  0  0  0  0  0
   -0.8516   -1.4143    0.1296 C   0  0  0  0  0  0  0  0  0  0  0  0
   -1.5912   -2.3779    0.0454 O   0  0  0  0  0  0  0  0  0  0  0  0
    0.5034   -1.5988    0.1934 N   0  0  0  0  0  0  0  0  0  0  0  0
    1.5420   -0.6880    0.0046 C   0  0  0  0  0  0  0  0  0  0  0  0
    2.7586   -0.8838    0.6562 C   0  0  0  0  0  0  0  0  0  0  0  0
    3.7872    0.0163    0.4431 C   0  0  0  0  0  0  0  0  0  0  0  0
    3.5684    1.0757   -0.4249 C   0  0  0  0  0  0  0  0  0  0  0  0
    2.4279    1.2508   -1.0707 N   0  0  0  0  0  0  0  0  0  0  0  0
    1.4460    0.3976   -0.8708 C   0  0  0  0  0  0  0  0  0  0  0  0
    0.5436    0.5767   -1.4389 H   0  0  0  0  0  0  0  0  0  0  0  0
    4.3372    1.8087   -0.6257 H   0  0  0  0  0  0  0  0  0  0  0  0
    4.7377   -0.1056    0.9385 H   0  0  0  0  0  0  0  0  0  0  0  0
    2.8863   -1.7283    1.3191 H   0  0  0  0  0  0  0  0  0  0  0  0
    0.7761   -2.5646    0.3348 H   0  0  0  0  0  0  0  0  0  0  0  0
    0.0522    1.0277    1.6332 H   0  0  0  0  0  0  0  0  0  0  0  0
   -1.8129    2.9898    1.3739 H   0  0  0  0  0  0  0  0  0  0  0  0
   -3.4660   -1.3574   -0.8162 H   0  0  0  0  0  0  0  0  0  0  0  0
   -3.0454   -0.2504   -2.1419 H   0  0  0  0  0  0  0  0  0  0  0  0
   -4.3844    0.1603   -1.0497 H   0  0  0  0  0  0  0  0  0  0  0  0
  1  2  1  0
  1 23  1  0
  1 24  1  0
  1 25  1  0
  2  3  1  0
  2  6  1  0
  3  4  2  0
  4  5  1  0
  4 22  1  0
  5  6  2  0
  5 21  1  0
  6  7  1  0
  7  8  2  0
  7  9  1  0
  9 10  1  0
  9 20  1  0
 10 11  2  0
 10 15  1  0
 11 12  1  0
 11 19  1  0
 12 13  2  0
 12 18  1  0
 13 14  1  0
 13 17  1  0
 14 15  2  0
 15 16  1  0
M  END
$$$$

     RDKit          3D

 25 26  0  0  0  0  0  0  0  0999 V2000
    1.9143    1.8983    0.9489 C   0  0  0  0  0  0  0  0  0  0  0  0
    2.5317    0.7941    0.2677 N   0  0  0  0  0  0  0  0  0  0  0  0
    3.8283    0.8481    0.0020 N   0  0  0  0  0  0  0  0  0  0  0  0
    4.1540   -0.3093   -0.5422 C   0  0  0  0  0  0  0  0  0  0  0  0
    3.0438   -1.1537   -0.6118 C   0  0  0  0  0  0  0  0  0  0  0  0
    2.0000   -0.4086   -0.0853 C   0  0  0  0  0  0  0  0  0  0  0  0
    0.5980   -0.8360    0.0869 C   0  0  0  0  0  0  0  0  0  0  0  0
    0.3041   -1.9617    0.4237 O   0  0  0  0  0  0  0  0  0  0  0  0
   -0.3132    0.1524   -0.1919 N   0  0  0  0  0  0  0  0  0  0  0  0
   -1.7047    0.0893   -0.1233 C   0  0  0  0  0  0  0  0  0  0  0  0
   -2.4124   -1.0160    0.3448 C   0  0  0  0  0  0  0  0  0  0  0  0
   -3.7947   -0.9461    0.3762 C   0  0  0  0  0  0  0  0  0  0  0  0
   -4.4210    0.2133   -0.0546 C   0  0  0  0  0  0  0  0  0  0  0  0
   -3.7542    1.2663   -0.4986 N   0  0  0  0  0  0  0  0  0  0  0  0
   -2.4400    1.2056   -0.5318 C   0  0  0  0  0  0  0  0  0  0  0  0
   -1.9378    2.0919   -0.9038 H   0  0  0  0  0  0  0  0  0  0  0  0
   -5.4978    0.3114   -0.0478 H   0  0  0  0  0  0  0  0  0  0  0  0
   -4.3735   -1.7842    0.7314 H   0  0  0  0  0  0  0  0  0  0  0  0
   -1.8881   -1.9001    0.6679 H   0  0  0  0  0  0  0  0  0  0  0  0
    0.0436    1.0164   -0.5755 H   0  0  0  0  0  0  0  0  0  0  0  0
    2.9879   -2.1516   -0.9927 H   0  0  0  0  0  0  0  0  0  0  0  0
    5.1617   -0.4972   -0.8529 H   0  0  0  0  0  0  0  0  0  0  0  0
    2.6925    2.4135    1.5105 H   0  0  0  0  0  0  0  0  0  0  0  0
    1.1445    1.5446    1.6339 H   0  0  0  0  0  0  0  0  0  0  0  0
    1.4788    2.6112    0.2425 H   0  0  0  0  0  0  0  0  0  0  0  0
  1  2  1  0
  1 23  1  0
  1 24  1  0
  1 25  1  0
  2  3  1  0
  2  6  1  0
  3  4  2  0
  4  5  1  0
  4 22  1  0
  5  6  2  0
  5 21  1  0
  6  7  1  0
  7  8  2  0
  7  9  1  0
  9 10  1  0
  9 20  1  0
 10 11  2  0
 10 15  1  0
 11 12  1  0
 11 19  1  0
 12 13  2  0
 12 18  1  0
 13 14  1  0
 13 17  1  0
 14 15  2  0
 15 16  1  0
M  END
$$$$

     RDKit          3D

 25 26  0  0  0  0  0  0  0  0999 V2000
    0.7025    0.5707    2.0148 C   0  0  0  0  0  0  0  0  0  0  0  0
    1.4517    0.6951    0.7974 N   0  0  0  0  0  0  0  0  0  0  0  0
    2.1499    1.7954    0.5624 N   0  0  0  0  0  0  0  0  0  0  0  0
    2.7880    1.6024   -0.5762 C   0  0  0  0  0  0  0  0  0  0  0  0
    2.5174    0.3300   -1.0886 C   0  0  0  0  0  0  0  0  0  0  0  0
    1.6358   -0.2306   -0.1795 C   0  0  0  0  0  0  0  0  0  0  0  0
    1.0408   -1.5817   -0.1704 C   0  0  0  0  0  0  0  0  0  0  0  0
    1.7076   -2.5924   -0.2282 O   0  0  0  0  0  0  0  0  0  0  0  0
   -0.3223   -1.6622   -0.0405 N   0  0  0  0  0  0  0  0  0  0  0  0
   -1.3026   -0.6807   -0.1672 C   0  0  0  0  0  0  0  0  0  0  0  0
   -1.1509    0.4654   -0.9474 C   0  0  0  0  0  0  0  0  0  0  0  0
   -2.1890    1.3796   -0.9935 C   0  0  0  0  0  0  0  0  0  0  0  0
   -3.3459    1.1168   -0.2750 C   0  0  0  0  0  0  0  0  0  0  0  0
   -3.5122    0.0140    0.4359 N   0  0  0  0  0  0  0  0  0  0  0  0
   -2.5280   -0.8581    0.4846 C   0  0  0  0  0  0  0  0  0  0  0  0
   -2.7128   -1.7484    1.0728 H   0  0  0  0  0  0  0  0  0  0  0  0
   -4.1792    1.8051   -0.2739 H   0  0  0  0  0  0  0  0  0  0  0  0
   -2.0997    2.2755   -1.5872 H   0  0  0  0  0  0  0  0  0  0  0  0
   -0.2492    0.6315   -1.5156 H   0  0  0  0  0  0  0  0  0  0  0  0
   -0.6601   -2.6033    0.1269 H   0  0  0  0  0  0  0  0  0  0  0  0
    2.8896   -0.1188   -1.9859 H   0  0  0  0  0  0  0  0  0  0  0  0
    3.4199    2.3668   -0.9809 H   0  0  0  0  0  0  0  0  0  0  0  0
   -0.3614    0.7576    1.8476 H   0  0  0  0  0  0  0  0  0  0  0  0
    1.0842    1.3153    2.7109 H   0  0  0  0  0  0  0  0  0  0  0  0
    0.8291   -0.4259    2.4380 H   0  0  0  0  0  0  0  0  0  0  0  0
  1  2  1  0
  1 23  1  0
  1 24  1  0
  1 25  1  0
  2  3  1  0
  2  6  1  0
  3  4  2  0
  4  5  1  0
  4 22  1  0
  5  6  2  0
  5 21  1  0
  6  7  1  0
  7  8  2  0
  7  9  1  0
  9 10  1  0
  9 20  1  0
 10 11  2  0
 10 15  1  0
 11 12  1  0
 11 19  1  0
 12 13  2  0
 12 18  1  0
 13 14  1  0
 13 17  1  0
 14 15  2  0
 15 16  1  0
M  END
$$$$

     RDKit          3D

 25 26  0  0  0  0  0  0  0  0999 V2000
   -0.7121   -0.6050   -2.0025 C   0  0  0  0  0  0  0  0  0  0  0  0
   -1.4752   -0.6938   -0.7911 N   0  0  0  0  0  0  0  0  0  0  0  0
   -2.2086   -1.7695   -0.5546 N   0  0  0  0  0  0  0  0  0  0  0  0
   -2.8402   -1.5547    0.5838 C   0  0  0  0  0  0  0  0  0  0  0  0
   -2.5300   -0.2907    1.0932 C   0  0  0  0  0  0  0  0  0  0  0  0
   -1.6293    0.2399    0.1841 C   0  0  0  0  0  0  0  0  0  0  0  0
   -1.0150    1.5797    0.1702 C   0  0  0  0  0  0  0  0  0  0  0  0
   -1.6668    2.5983    0.2639 O   0  0  0  0  0  0  0  0  0  0  0  0
    0.3434    1.6556   -0.0143 N   0  0  0  0  0  0  0  0  0  0  0  0
    1.3385    0.6898    0.1087 C   0  0  0  0  0  0  0  0  0  0  0  0
    2.5668    0.9042   -0.5197 C   0  0  0  0  0  0  0  0  0  0  0  0
    3.5626   -0.0465   -0.3980 C   0  0  0  0  0  0  0  0  0  0  0  0
    3.3021   -1.1812    0.3576 C   0  0  0  0  0  0  0  0  0  0  0  0
    2.1531   -1.3786    0.9788 N   0  0  0  0  0  0  0  0  0  0  0  0
    1.2006   -0.4756    0.8691 C   0  0  0  0  0  0  0  0  0  0  0  0
    0.2956   -0.6828    1.4219 H   0  0  0  0  0  0  0  0  0  0  0  0
    4.0429   -1.9582    0.4832 H   0  0  0  0  0  0  0  0  0  0  0  0
    4.5195    0.0928   -0.8758 H   0  0  0  0  0  0  0  0  0  0  0  0
    2.7280    1.8070   -1.0926 H   0  0  0  0  0  0  0  0  0  0  0  0
    0.6708    2.6022   -0.1754 H   0  0  0  0  0  0  0  0  0  0  0  0
   -2.8878    0.1720    1.9893 H   0  0  0  0  0  0  0  0  0  0  0  0
   -3.4965   -2.2978    0.9891 H   0  0  0  0  0  0  0  0  0  0  0  0
    0.3335   -0.8732   -1.8301 H   0  0  0  0  0  0  0  0  0  0  0  0
   -0.7630    0.4045   -2.4103 H   0  0  0  0  0  0  0  0  0  0  0  0
   -1.1409   -1.3097   -2.7128 H   0  0  0  0  0  0  0  0  0  0  0  0
  1  2  1  0
  1 23  1  0
  1 24  1  0
  1 25  1  0
  2  3  1  0
  2  6  1  0
  3  4  2  0
  4  5  1  0
  4 22  1  0
  5  6  2  0
  5 21  1  0
  6  7  1  0
  7  8  2  0
  7  9  1  0
  9 10  1  0
  9 20  1  0
 10 11  2  0
 10 15  1  0
 11 12  1  0
 11 19  1  0
 12 13  2  0
 12 18  1  0
 13 14  1  0
 13 17  1  0
 14 15  2  0
 15 16  1  0
M  END
$$$$

     RDKit          3D

 25 26  0  0  0  0  0  0  0  0999 V2000
   -1.9347   -1.8731   -0.9894 C   0  0  0  0  0  0  0  0  0  0  0  0
   -2.5406   -0.7781   -0.2838 N   0  0  0  0  0  0  0  0  0  0  0  0
   -3.8377   -0.8227   -0.0174 N   0  0  0  0  0  0  0  0  0  0  0  0
   -4.1483    0.3267    0.5518 C   0  0  0  0  0  0  0  0  0  0  0  0
   -3.0279    1.1565    0.6371 C   0  0  0  0  0  0  0  0  0  0  0  0
   -1.9942    0.4104    0.0936 C   0  0  0  0  0  0  0  0  0  0  0  0
   -0.5853    0.8189   -0.0764 C   0  0  0  0  0  0  0  0  0  0  0  0
   -0.2727    1.9374   -0.4160 O   0  0  0  0  0  0  0  0  0  0  0  0
    0.3079   -0.1852    0.2086 N   0  0  0  0  0  0  0  0  0  0  0  0
    1.7006   -0.1461    0.1484 C   0  0  0  0  0  0  0  0  0  0  0  0
    2.4152   -1.2562    0.5977 C   0  0  0  0  0  0  0  0  0  0  0  0
    3.7955   -1.2414    0.5293 C   0  0  0  0  0  0  0  0  0  0  0  0
    4.4154   -0.1143    0.0094 C   0  0  0  0  0  0  0  0  0  0  0  0
    3.7448    0.9399   -0.4195 N   0  0  0  0  0  0  0  0  0  0  0  0
    2.4289    0.9357   -0.3558 C   0  0  0  0  0  0  0  0  0  0  0  0
    1.9292    1.8225   -0.7141 H   0  0  0  0  0  0  0  0  0  0  0  0
    5.4920   -0.0500   -0.0677 H   0  0  0  0  0  0  0  0  0  0  0  0
    4.3742   -2.0853    0.8714 H   0  0  0  0  0  0  0  0  0  0  0  0
    1.8906   -2.1156    0.9956 H   0  0  0  0  0  0  0  0  0  0  0  0
   -0.0686   -1.0366    0.6032 H   0  0  0  0  0  0  0  0  0  0  0  0
   -2.9599    2.1456    1.0387 H   0  0  0  0  0  0  0  0  0  0  0  0
   -5.1532    0.5200    0.8681 H   0  0  0  0  0  0  0  0  0  0  0  0
   -2.7144   -2.3604   -1.5734 H   0  0  0  0  0  0  0  0  0  0  0  0
   -1.5179   -2.6118   -0.2984 H   0  0  0  0  0  0  0  0  0  0  0  0
   -1.1521   -1.5123   -1.6560 H   0  0  0  0  0  0  0  0  0  0  0  0
  1  2  1  0
  1 23  1  0
  1 24  1  0
  1 25  1  0
  2  3  1  0
  2  6  1  0
  3  4  2  0
  4  5  1  0
  4 22  1  0
  5  6  2  0
  5 21  1  0
  6  7  1  0
  7  8  2  0
  7  9  1  0
  9 10  1  0
  9 20  1  0
 10 11  2  0
 10 15  1  0
 11 12  1  0
 11 19  1  0
 12 13  2  0
 12 18  1  0
 13 14  1  0
 13 17  1  0
 14 15  2  0
 15 16  1  0
M  END
$$$$
