
     RDKit          3D

 26 27  0  0  0  0  0  0  0  0999 V2000
   -4.6077   -1.1007   -0.2856 O   0  0  0  0  0  0  0  0  0  0  0  0
   -3.4034   -1.2952   -0.2972 C   0  0  0  0  0  0  0  0  0  0  0  0
   -2.9034   -2.5028   -0.5754 O   0  0  0  0  0  0  0  0  0  0  0  0
   -3.6286   -3.1222   -0.7535 H   0  0  0  0  0  0  0  0  0  0  0  0
   -2.4014   -0.2669   -0.0137 C   0  0  0  0  0  0  0  0  0  0  0  0
   -1.0387   -0.5666   -0.0532 C   0  0  0  0  0  0  0  0  0  0  0  0
   -0.0838    0.4008    0.2066 C   0  0  0  0  0  0  0  0  0  0  0  0
   -0.5109    1.6979    0.5165 C   0  0  0  0  0  0  0  0  0  0  0  0
   -1.8483    2.0103    0.5648 C   0  0  0  0  0  0  0  0  0  0  0  0
   -2.8225    1.0424    0.3002 C   0  0  0  0  0  0  0  0  0  0  0  0
   -4.1060    1.3975    0.3580 O   0  0  0  0  0  0  0  0  0  0  0  0
   -4.6636    0.6156    0.1441 H   0  0  0  0  0  0  0  0  0  0  0  0
   -2.1793    3.0075    0.8071 H   0  0  0  0  0  0  0  0  0  0  0  0
    0.2178    2.4632    0.7339 H   0  0  0  0  0  0  0  0  0  0  0  0
    1.3463    0.0574    0.1661 C   0  0  0  0  0  0  0  0  0  0  0  0
    1.8097   -1.1336    0.7242 C   0  0  0  0  0  0  0  0  0  0  0  0
    3.1477   -1.4769    0.6979 C   0  0  0  0  0  0  0  0  0  0  0  0
    4.0462   -0.6140    0.0962 C   0  0  0  0  0  0  0  0  0  0  0  0
    3.6378    0.5756   -0.4774 C   0  0  0  0  0  0  0  0  0  0  0  0
    2.2929    0.8904   -0.4298 C   0  0  0  0  0  0  0  0  0  0  0  0
    1.9030    2.0411   -1.0126 F   0  0  0  0  0  0  0  0  0  0  0  0
    4.3420    1.2390   -0.9523 H   0  0  0  0  0  0  0  0  0  0  0  0
    5.3518   -0.9364    0.0645 F   0  0  0  0  0  0  0  0  0  0  0  0
    3.4996   -2.3964    1.1369 H   0  0  0  0  0  0  0  0  0  0  0  0
    1.1019   -1.7922    1.2030 H   0  0  0  0  0  0  0  0  0  0  0  0
   -0.7411   -1.5701   -0.3142 H   0  0  0  0  0  0  0  0  0  0  0  0
  1  2  2  0
  2  3  1  0
  2  5  1  0
  3  4  1  0
  5  6  2  0
  5 10  1  0
  6  7  1  0
  6 26  1  0
  7  8  2  0
  7 15  1  0
  8  9  1  0
  8 14  1  0
  9 10  2  0
  9 13  1  0
 10 11  1  0
 11 12  1  0
 15 16  2  0
 15 20  1  0
 16 17  1  0
 16 25  1  0
 17 18  2  0
 17 24  1  0
 18 19  1  0
 18 23  1  0
 19 20  2  0
 19 22  1  0
 20 21  1  0
M  END
$$$$

     RDKit          3D

 26 27  0  0  0  0  0  0  0  0999 V2000
   -4.5278   -1.0370   -0.3065 O   0  0  0  0  0  0  0  0  0  0  0  0
   -3.3176   -1.1829   -0.3661 C   0  0  0  0  0  0  0  0  0  0  0  0
   -2.7796   -2.3635   -0.6764 O   0  0  0  0  0  0  0  0  0  0  0  0
   -3.4818   -3.0180   -0.8168 H   0  0  0  0  0  0  0  0  0  0  0  0
   -2.3490   -0.1130   -0.1169 C   0  0  0  0  0  0  0  0  0  0  0  0
   -0.9774   -0.3626   -0.1833 C   0  0  0  0  0  0  0  0  0  0  0  0
   -0.0566    0.6455    0.0425 C   0  0  0  0  0  0  0  0  0  0  0  0
   -0.5278    1.9292    0.3439 C   0  0  0  0  0  0  0  0  0  0  0  0
   -1.8743    2.1916    0.4215 C   0  0  0  0  0  0  0  0  0  0  0  0
   -2.8147    1.1814    0.1937 C   0  0  0  0  0  0  0  0  0  0  0  0
   -4.1095    1.4866    0.2793 O   0  0  0  0  0  0  0  0  0  0  0  0
   -4.6393    0.6764    0.1010 H   0  0  0  0  0  0  0  0  0  0  0  0
   -2.2392    3.1772    0.6631 H   0  0  0  0  0  0  0  0  0  0  0  0
    0.1803    2.7203    0.5405 H   0  0  0  0  0  0  0  0  0  0  0  0
    1.3903    0.3915   -0.0391 C   0  0  0  0  0  0  0  0  0  0  0  0
    2.2382    1.2918   -0.6830 C   0  0  0  0  0  0  0  0  0  0  0  0
    3.5996    1.0727   -0.7711 C   0  0  0  0  0  0  0  0  0  0  0  0
    4.1298   -0.0695   -0.1981 C   0  0  0  0  0  0  0  0  0  0  0  0
    3.3336   -0.9903    0.4572 C   0  0  0  0  0  0  0  0  0  0  0  0
    1.9755   -0.7431    0.5226 C   0  0  0  0  0  0  0  0  0  0  0  0
    1.2120   -1.6344    1.1838 F   0  0  0  0  0  0  0  0  0  0  0  0
    3.7550   -1.8736    0.9086 H   0  0  0  0  0  0  0  0  0  0  0  0
    5.4538   -0.2943   -0.2767 F   0  0  0  0  0  0  0  0  0  0  0  0
    4.2484    1.7697   -1.2762 H   0  0  0  0  0  0  0  0  0  0  0  0
    1.8121    2.1719   -1.1390 H   0  0  0  0  0  0  0  0  0  0  0  0
   -0.6514   -1.3608   -0.4279 H   0  0  0  0  0  0  0  0  0  0  0  0
  1  2  2  0
  2  3  1  0
  2  5  1  0
  3  4  1  0
  5  6  2  0
  5 10  1  0
  6  7  1  0
  6 26  1  0
  7  8  2  0
  7 15  1  0
  8  9  1  0
  8 14  1  0
  9 10  2  0
  9 13  1  0
 10 11  1  0
 11 12  1  0
 15 16  2  0
 15 20  1  0
 16 17  1  0
 16 25  1  0
 17 18  2  0
 17 24  1  0
 18 19  1  0
 18 23  1  0
 19 20  2  0
 19 22  1  0
 20 21  1  0
M  END
$$$$

     RDKit          3D

 26 27  0  0  0  0  0  0  0  0999 V2000
   -2.9415   -2.5203   -0.5505 O   0  0  0  0  0  0  0  0  0  0  0  0
   -3.3026   -1.3956   -0.3136 C   0  0  0  0  0  0  0  0  0  0  0  0
   -4.6275   -1.0879   -0.3046 O   0  0  0  0  0  0  0  0  0  0  0  0
   -5.1398   -1.8848   -0.5127 H   0  0  0  0  0  0  0  0  0  0  0  0
   -2.4014   -0.2711   -0.0157 C   0  0  0  0  0  0  0  0  0  0  0  0
   -1.0342   -0.5602   -0.0520 C   0  0  0  0  0  0  0  0  0  0  0  0
   -0.0754    0.4030    0.2054 C   0  0  0  0  0  0  0  0  0  0  0  0
   -0.5044    1.6983    0.5148 C   0  0  0  0  0  0  0  0  0  0  0  0
   -1.8442    2.0015    0.5600 C   0  0  0  0  0  0  0  0  0  0  0  0
   -2.8191    1.0352    0.2953 C   0  0  0  0  0  0  0  0  0  0  0  0
   -4.0994    1.4271    0.3622 O   0  0  0  0  0  0  0  0  0  0  0  0
   -4.6879    0.6843    0.1529 H   0  0  0  0  0  0  0  0  0  0  0  0
   -2.1807    2.9971    0.8015 H   0  0  0  0  0  0  0  0  0  0  0  0
    0.2192    2.4679    0.7333 H   0  0  0  0  0  0  0  0  0  0  0  0
    1.3536    0.0562    0.1633 C   0  0  0  0  0  0  0  0  0  0  0  0
    1.8119   -1.1432    0.7075 C   0  0  0  0  0  0  0  0  0  0  0  0
    3.1490   -1.4900    0.6797 C   0  0  0  0  0  0  0  0  0  0  0  0
    4.0514   -0.6223    0.0906 C   0  0  0  0  0  0  0  0  0  0  0  0
    3.6478    0.5753   -0.4694 C   0  0  0  0  0  0  0  0  0  0  0  0
    2.3038    0.8935   -0.4207 C   0  0  0  0  0  0  0  0  0  0  0  0
    1.9190    2.0530   -0.9902 F   0  0  0  0  0  0  0  0  0  0  0  0
    4.3549    1.2421   -0.9351 H   0  0  0  0  0  0  0  0  0  0  0  0
    5.3563   -0.9475    0.0582 F   0  0  0  0  0  0  0  0  0  0  0  0
    3.4968   -2.4164    1.1071 H   0  0  0  0  0  0  0  0  0  0  0  0
    1.1008   -1.8063    1.1746 H   0  0  0  0  0  0  0  0  0  0  0  0
   -0.7487   -1.5682   -0.3126 H   0  0  0  0  0  0  0  0  0  0  0  0
  1  2  2  0
  2  3  1  0
  2  5  1  0
  3  4  1  0
  5  6  2  0
  5 10  1  0
  6  7  1  0
  6 26  1  0
  7  8  2  0
  7 15  1  0
  8  9  1  0
  8 14  1  0
  9 10  2  0
  9 13  1  0
 10 11  1  0
 11 12  1  0
 15 16  2  0
 15 20  1  0
 16 17  1  0
 16 25  1  0
 17 18  2  0
 17 24  1  0
 18 19  1  0
 18 23  1  0
 19 20  2  0
 19 22  1  0
 20 21  1  0
M  END
$$$$

     RDKit          3D

 26 27  0  0  0  0  0  0  0  0999 V2000
   -2.8209   -2.3593    0.7552 O   0  0  0  0  0  0  0  0  0  0  0  0
   -3.2127   -1.2762    0.4053 C   0  0  0  0  0  0  0  0  0  0  0  0
   -4.5454   -1.0456    0.2514 O   0  0  0  0  0  0  0  0  0  0  0  0
   -5.0326   -1.8593    0.4545 H   0  0  0  0  0  0  0  0  0  0  0  0
   -2.3469   -0.1200    0.1193 C   0  0  0  0  0  0  0  0  0  0  0  0
   -0.9707   -0.3577    0.1850 C   0  0  0  0  0  0  0  0  0  0  0  0
   -0.0475    0.6472   -0.0393 C   0  0  0  0  0  0  0  0  0  0  0  0
   -0.5202    1.9295   -0.3374 C   0  0  0  0  0  0  0  0  0  0  0  0
   -1.8689    2.1810   -0.4159 C   0  0  0  0  0  0  0  0  0  0  0  0
   -2.8092    1.1703   -0.1933 C   0  0  0  0  0  0  0  0  0  0  0  0
   -4.1022    1.5120   -0.2896 O   0  0  0  0  0  0  0  0  0  0  0  0
   -4.6643    0.7357   -0.1355 H   0  0  0  0  0  0  0  0  0  0  0  0
   -2.2402    3.1647   -0.6557 H   0  0  0  0  0  0  0  0  0  0  0  0
    0.1833    2.7255   -0.5302 H   0  0  0  0  0  0  0  0  0  0  0  0
    1.3990    0.3905    0.0422 C   0  0  0  0  0  0  0  0  0  0  0  0
    2.2455    1.2756    0.7077 C   0  0  0  0  0  0  0  0  0  0  0  0
    3.6061    1.0509    0.7962 C   0  0  0  0  0  0  0  0  0  0  0  0
    4.1350   -0.0808    0.2017 C   0  0  0  0  0  0  0  0  0  0  0  0
    3.3396   -0.9853   -0.4770 C   0  0  0  0  0  0  0  0  0  0  0  0
    1.9822   -0.7332   -0.5426 C   0  0  0  0  0  0  0  0  0  0  0  0
    1.2185   -1.6030   -1.2291 F   0  0  0  0  0  0  0  0  0  0  0  0
    3.7607   -1.8599   -0.9452 H   0  0  0  0  0  0  0  0  0  0  0  0
    5.4584   -0.3100    0.2803 F   0  0  0  0  0  0  0  0  0  0  0  0
    4.2551    1.7354    1.3180 H   0  0  0  0  0  0  0  0  0  0  0  0
    1.8192    2.1473    1.1795 H   0  0  0  0  0  0  0  0  0  0  0  0
   -0.6539   -1.3596    0.4314 H   0  0  0  0  0  0  0  0  0  0  0  0
  1  2  2  0
  2  3  1  0
  2  5  1  0
  3  4  1  0
  5  6  2  0
  5 10  1  0
  6  7  1  0
  6 26  1  0
  7  8  2  0
  7 15  1  0
  8  9  1  0
  8 14  1  0
  9 10  2  0
  9 13  1  0
 10 11  1  0
 11 12  1  0
 15 16  2  0
 15 20  1  0
 16 17  1  0
 16 25  1  0
 17 18  2  0
 17 24  1  0
 18 19  1  0
 18 23  1  0
 19 20  2  0
 19 22  1  0
 20 21  1  0
M  END
$$$$
