
     RDKit          3D

 32 33  0  0  0  0  0  0  0  0999 V2000
    6.2726    0.5006    0.8004 C   0  0  0  0  0  0  0  0  0  0  0  0
    6.5224   -0.3390    0.1435 H   0  0  0  0  0  0  0  0  0  0  0  0
    5.2167    1.2692    0.2786 O   0  0  0  0  0  0  0  0  0  0  0  0
    4.0071    0.6692    0.0910 C   0  0  0  0  0  0  0  0  0  0  0  0
    3.7195   -0.6597    0.3782 C   0  0  0  0  0  0  0  0  0  0  0  0
    2.4528   -1.1697    0.1482 C   0  0  0  0  0  0  0  0  0  0  0  0
    1.4538   -0.3589   -0.3724 C   0  0  0  0  0  0  0  0  0  0  0  0
    1.7406    0.9758   -0.6615 C   0  0  0  0  0  0  0  0  0  0  0  0
    2.9991    1.4823   -0.4324 C   0  0  0  0  0  0  0  0  0  0  0  0
    3.2313    2.5122   -0.6513 H   0  0  0  0  0  0  0  0  0  0  0  0
    0.9668    1.6129   -1.0652 H   0  0  0  0  0  0  0  0  0  0  0  0
    0.1526   -0.8087   -0.6345 N   0  0  0  0  0  0  0  0  0  0  0  0
   -0.3898   -2.0119   -0.3602 C   0  0  0  0  0  0  0  0  0  0  0  0
    0.1657   -2.9584    0.1538 O   0  0  0  0  0  0  0  0  0  0  0  0
   -1.8591   -2.1029   -0.7873 C   0  0  0  0  0  0  0  0  0  0  0  0
   -2.1525   -3.1519   -0.8165 H   0  0  0  0  0  0  0  0  0  0  0  0
   -2.0426   -1.6225   -1.7469 H   0  0  0  0  0  0  0  0  0  0  0  0
   -2.9854   -1.3429    0.4310 S   0  0  0  0  0  0  0  0  0  0  0  0
   -2.8688    0.3152   -0.0255 C   0  0  0  0  0  0  0  0  0  0  0  0
   -2.0839    0.8710   -0.9336 N   0  0  0  0  0  0  0  0  0  0  0  0
   -2.3694    2.1662   -0.9233 N   0  0  0  0  0  0  0  0  0  0  0  0
   -3.2679    2.4386   -0.0803 N   0  0  0  0  0  0  0  0  0  0  0  0
   -3.6268    1.2995    0.5223 N   0  0  0  0  0  0  0  0  0  0  0  0
   -4.6226    1.2130    1.5437 C   0  0  0  0  0  0  0  0  0  0  0  0
   -4.1758    0.8595    2.4742 H   0  0  0  0  0  0  0  0  0  0  0  0
   -5.4070    0.5176    1.2412 H   0  0  0  0  0  0  0  0  0  0  0  0
   -5.0381    2.2082    1.6851 H   0  0  0  0  0  0  0  0  0  0  0  0
   -0.4689   -0.0940   -1.0199 H   0  0  0  0  0  0  0  0  0  0  0  0
    2.2407   -2.2008    0.3762 H   0  0  0  0  0  0  0  0  0  0  0  0
    4.4721   -1.3171    0.7832 H   0  0  0  0  0  0  0  0  0  0  0  0
    7.1255    1.1748    0.8617 H   0  0  0  0  0  0  0  0  0  0  0  0
    6.0390    0.1219    1.8009 H   0  0  0  0  0  0  0  0  0  0  0  0
  1  2  1  0
  1  3  1  0
  1 31  1  0
  1 32  1  0
  3  4  1  0
  4  5  2  0
  4  9  1  0
  5  6  1  0
  5 30  1  0
  6  7  2  0
  6 29  1  0
  7  8  1  0
  7 12  1  0
  8  9  2  0
  8 11  1  0
  9 10  1  0
 12 13  1  0
 12 28  1  0
 13 14  2  0
 13 15  1  0
 15 16  1  0
 15 17  1  0
 15 18  1  0
 18 19  1  0
 19 20  2  0
 19 23  1  0
 20 21  1  0
 21 22  2  0
 22 23  1  0
 23 24  1  0
 24 25  1  0
 24 26  1  0
 24 27  1  0
M  END
$$$$

     RDKit          3D

 32 33  0  0  0  0  0  0  0  0999 V2000
   -5.8138   -1.8915    0.2400 C   0  0  0  0  0  0  0  0  0  0  0  0
   -5.7497   -2.1203   -0.8289 H   0  0  0  0  0  0  0  0  0  0  0  0
   -5.3548   -0.5920    0.5194 O   0  0  0  0  0  0  0  0  0  0  0  0
   -4.0602   -0.2820    0.2258 C   0  0  0  0  0  0  0  0  0  0  0  0
   -3.1359   -1.1589   -0.3322 C   0  0  0  0  0  0  0  0  0  0  0  0
   -1.8461   -0.7311   -0.5887 C   0  0  0  0  0  0  0  0  0  0  0  0
   -1.4539    0.5702   -0.2955 C   0  0  0  0  0  0  0  0  0  0  0  0
   -2.3777    1.4496    0.2646 C   0  0  0  0  0  0  0  0  0  0  0  0
   -3.6625    1.0231    0.5199 C   0  0  0  0  0  0  0  0  0  0  0  0
   -4.3879    1.6931    0.9529 H   0  0  0  0  0  0  0  0  0  0  0  0
   -2.0829    2.4589    0.4974 H   0  0  0  0  0  0  0  0  0  0  0  0
   -0.1310    0.9260   -0.5912 N   0  0  0  0  0  0  0  0  0  0  0  0
    0.5076    2.0826   -0.3229 C   0  0  0  0  0  0  0  0  0  0  0  0
    0.0407    3.0626    0.2149 O   0  0  0  0  0  0  0  0  0  0  0  0
    1.9669    2.0667   -0.7933 C   0  0  0  0  0  0  0  0  0  0  0  0
    2.3368    3.0911   -0.8261 H   0  0  0  0  0  0  0  0  0  0  0  0
    2.0861    1.5808   -1.7604 H   0  0  0  0  0  0  0  0  0  0  0  0
    3.0685    1.2170    0.3874 S   0  0  0  0  0  0  0  0  0  0  0  0
    2.8083   -0.4260   -0.0639 C   0  0  0  0  0  0  0  0  0  0  0  0
    1.9597   -0.9182   -0.9511 N   0  0  0  0  0  0  0  0  0  0  0  0
    2.1402   -2.2321   -0.9435 N   0  0  0  0  0  0  0  0  0  0  0  0
    3.0343   -2.5749   -0.1215 N   0  0  0  0  0  0  0  0  0  0  0  0
    3.4980   -1.4675    0.4684 N   0  0  0  0  0  0  0  0  0  0  0  0
    4.5223   -1.4597    1.4649 C   0  0  0  0  0  0  0  0  0  0  0  0
    4.1303   -1.0620    2.4023 H   0  0  0  0  0  0  0  0  0  0  0  0
    5.3560   -0.8368    1.1375 H   0  0  0  0  0  0  0  0  0  0  0  0
    4.8542   -2.4859    1.6059 H   0  0  0  0  0  0  0  0  0  0  0  0
    0.4250    0.1710   -0.9990 H   0  0  0  0  0  0  0  0  0  0  0  0
   -1.1330   -1.4189   -1.0208 H   0  0  0  0  0  0  0  0  0  0  0  0
   -3.4034   -2.1755   -0.5725 H   0  0  0  0  0  0  0  0  0  0  0  0
   -5.2583   -2.6459    0.8069 H   0  0  0  0  0  0  0  0  0  0  0  0
   -6.8580   -1.9079    0.5485 H   0  0  0  0  0  0  0  0  0  0  0  0
  1  2  1  0
  1  3  1  0
  1 31  1  0
  1 32  1  0
  3  4  1  0
  4  5  2  0
  4  9  1  0
  5  6  1  0
  5 30  1  0
  6  7  2  0
  6 29  1  0
  7  8  1  0
  7 12  1  0
  8  9  2  0
  8 11  1  0
  9 10  1  0
 12 13  1  0
 12 28  1  0
 13 14  2  0
 13 15  1  0
 15 16  1  0
 15 17  1  0
 15 18  1  0
 18 19  1  0
 19 20  2  0
 19 23  1  0
 20 21  1  0
 21 22  2  0
 22 23  1  0
 23 24  1  0
 24 25  1  0
 24 26  1  0
 24 27  1  0
M  END
$$$$

     RDKit          3D

 32 33  0  0  0  0  0  0  0  0999 V2000
    6.2767    0.5047   -0.7977 C   0  0  0  0  0  0  0  0  0  0  0  0
    6.5234   -0.3369   -0.1422 H   0  0  0  0  0  0  0  0  0  0  0  0
    5.2201    1.2734   -0.2774 O   0  0  0  0  0  0  0  0  0  0  0  0
    4.0102    0.6733   -0.0914 C   0  0  0  0  0  0  0  0  0  0  0  0
    3.7235   -0.6560   -0.3778 C   0  0  0  0  0  0  0  0  0  0  0  0
    2.4568   -1.1662   -0.1488 C   0  0  0  0  0  0  0  0  0  0  0  0
    1.4566   -0.3553    0.3695 C   0  0  0  0  0  0  0  0  0  0  0  0
    1.7424    0.9799    0.6571 C   0  0  0  0  0  0  0  0  0  0  0  0
    3.0011    1.4867    0.4293 C   0  0  0  0  0  0  0  0  0  0  0  0
    3.2325    2.5169    0.6474 H   0  0  0  0  0  0  0  0  0  0  0  0
    0.9677    1.6173    1.0587 H   0  0  0  0  0  0  0  0  0  0  0  0
    0.1554   -0.8056    0.6302 N   0  0  0  0  0  0  0  0  0  0  0  0
   -0.3846   -2.0110    0.3610 C   0  0  0  0  0  0  0  0  0  0  0  0
    0.1729   -2.9592   -0.1475 O   0  0  0  0  0  0  0  0  0  0  0  0
   -1.8544   -2.1023    0.7861 C   0  0  0  0  0  0  0  0  0  0  0  0
   -2.0414   -1.6170    1.7426 H   0  0  0  0  0  0  0  0  0  0  0  0
   -2.1464   -3.1515    0.8197 H   0  0  0  0  0  0  0  0  0  0  0  0
   -2.9786   -1.3518   -0.4389 S   0  0  0  0  0  0  0  0  0  0  0  0
   -2.8786    0.3090    0.0185 C   0  0  0  0  0  0  0  0  0  0  0  0
   -2.0933    0.8563    0.9313 N   0  0  0  0  0  0  0  0  0  0  0  0
   -2.3776    2.1514    0.9343 N   0  0  0  0  0  0  0  0  0  0  0  0
   -3.2763    2.4321    0.0945 N   0  0  0  0  0  0  0  0  0  0  0  0
   -3.6367    1.2984   -0.5198 N   0  0  0  0  0  0  0  0  0  0  0  0
   -4.6368    1.2381   -1.5413 C   0  0  0  0  0  0  0  0  0  0  0  0
   -4.7573    0.2038   -1.8575 H   0  0  0  0  0  0  0  0  0  0  0  0
   -4.3310    1.8531   -2.3884 H   0  0  0  0  0  0  0  0  0  0  0  0
   -5.5794    1.6217   -1.1496 H   0  0  0  0  0  0  0  0  0  0  0  0
   -0.4682   -0.0913    1.0130 H   0  0  0  0  0  0  0  0  0  0  0  0
    2.2453   -2.1976   -0.3759 H   0  0  0  0  0  0  0  0  0  0  0  0
    4.4769   -1.3135   -0.7812 H   0  0  0  0  0  0  0  0  0  0  0  0
    6.0458    0.1291   -1.7999 H   0  0  0  0  0  0  0  0  0  0  0  0
    7.1307    1.1780   -0.8544 H   0  0  0  0  0  0  0  0  0  0  0  0
  1  2  1  0
  1  3  1  0
  1 31  1  0
  1 32  1  0
  3  4  1  0
  4  5  2  0
  4  9  1  0
  5  6  1  0
  5 30  1  0
  6  7  2  0
  6 29  1  0
  7  8  1  0
  7 12  1  0
  8  9  2  0
  8 11  1  0
  9 10  1  0
 12 13  1  0
 12 28  1  0
 13 14  2  0
 13 15  1  0
 15 16  1  0
 15 17  1  0
 15 18  1  0
 18 19  1  0
 19 20  2  0
 19 23  1  0
 20 21  1  0
 21 22  2  0
 22 23  1  0
 23 24  1  0
 24 25  1  0
 24 26  1  0
 24 27  1  0
M  END
$$$$

     RDKit          3D

 32 33  0  0  0  0  0  0  0  0999 V2000
   -4.7322   -0.1006   -0.3660 C   0  0  0  0  0  0  0  0  0  0  0  0
   -4.8716   -0.6372   -1.3095 H   0  0  0  0  0  0  0  0  0  0  0  0
   -3.8226   -0.7669    0.4773 O   0  0  0  0  0  0  0  0  0  0  0  0
   -2.5476   -0.9549    0.0402 C   0  0  0  0  0  0  0  0  0  0  0  0
   -2.0448   -0.5006   -1.1751 C   0  0  0  0  0  0  0  0  0  0  0  0
   -0.7183   -0.7212   -1.4990 C   0  0  0  0  0  0  0  0  0  0  0  0
    0.1319   -1.3809   -0.6195 C   0  0  0  0  0  0  0  0  0  0  0  0
   -0.3841   -1.8774    0.5752 C   0  0  0  0  0  0  0  0  0  0  0  0
   -1.7050   -1.6607    0.9019 C   0  0  0  0  0  0  0  0  0  0  0  0
   -2.1127   -2.0311    1.8285 H   0  0  0  0  0  0  0  0  0  0  0  0
    0.2485   -2.4364    1.2463 H   0  0  0  0  0  0  0  0  0  0  0  0
    1.4804   -1.5525   -0.9762 N   0  0  0  0  0  0  0  0  0  0  0  0
    2.6271   -1.2842   -0.3078 C   0  0  0  0  0  0  0  0  0  0  0  0
    3.7032   -1.4654   -0.8322 O   0  0  0  0  0  0  0  0  0  0  0  0
    2.6164   -0.8190    1.1433 C   0  0  0  0  0  0  0  0  0  0  0  0
    3.5816   -0.3388    1.3120 H   0  0  0  0  0  0  0  0  0  0  0  0
    2.5420   -1.6871    1.8018 H   0  0  0  0  0  0  0  0  0  0  0  0
    1.3267    0.3175    1.7444 S   0  0  0  0  0  0  0  0  0  0  0  0
    1.0210    1.2807    0.3496 C   0  0  0  0  0  0  0  0  0  0  0  0
    1.6825    1.3474   -0.7872 N   0  0  0  0  0  0  0  0  0  0  0  0
    1.0084    2.1961   -1.5470 N   0  0  0  0  0  0  0  0  0  0  0  0
   -0.0118    2.6539   -0.9551 N   0  0  0  0  0  0  0  0  0  0  0  0
   -0.0565    2.1047    0.2627 N   0  0  0  0  0  0  0  0  0  0  0  0
   -1.0825    2.3593    1.2242 C   0  0  0  0  0  0  0  0  0  0  0  0
   -1.8016    3.0364    0.7683 H   0  0  0  0  0  0  0  0  0  0  0  0
   -0.6566    2.8178    2.1180 H   0  0  0  0  0  0  0  0  0  0  0  0
   -1.5682    1.4221    1.5024 H   0  0  0  0  0  0  0  0  0  0  0  0
    1.6486   -1.6892   -1.9667 H   0  0  0  0  0  0  0  0  0  0  0  0
   -0.3303   -0.3516   -2.4370 H   0  0  0  0  0  0  0  0  0  0  0  0
   -2.6677    0.0321   -1.8752 H   0  0  0  0  0  0  0  0  0  0  0  0
   -5.6747   -0.0790    0.1783 H   0  0  0  0  0  0  0  0  0  0  0  0
   -4.4114    0.9251   -0.5747 H   0  0  0  0  0  0  0  0  0  0  0  0
  1  2  1  0
  1  3  1  0
  1 31  1  0
  1 32  1  0
  3  4  1  0
  4  5  2  0
  4  9  1  0
  5  6  1  0
  5 30  1  0
  6  7  2  0
  6 29  1  0
  7  8  1  0
  7 12  1  0
  8  9  2  0
  8 11  1  0
  9 10  1  0
 12 13  1  0
 12 28  1  0
 13 14  2  0
 13 15  1  0
 15 16  1  0
 15 17  1  0
 15 18  1  0
 18 19  1  0
 19 20  2  0
 19 23  1  0
 20 21  1  0
 21 22  2  0
 22 23  1  0
 23 24  1  0
 24 25  1  0
 24 26  1  0
 24 27  1  0
M  END
$$$$

     RDKit          3D

 32 33  0  0  0  0  0  0  0  0999 V2000
   -6.1250   -0.8623    0.7055 C   0  0  0  0  0  0  0  0  0  0  0  0
   -5.7465   -1.1246    1.6986 H   0  0  0  0  0  0  0  0  0  0  0  0
   -5.1993   -1.1880   -0.3029 O   0  0  0  0  0  0  0  0  0  0  0  0
   -3.9757   -0.5906   -0.2783 C   0  0  0  0  0  0  0  0  0  0  0  0
   -3.5564    0.3399    0.6658 C   0  0  0  0  0  0  0  0  0  0  0  0
   -2.2880    0.8895    0.5969 C   0  0  0  0  0  0  0  0  0  0  0  0
   -1.4172    0.5170   -0.4171 C   0  0  0  0  0  0  0  0  0  0  0  0
   -1.8343   -0.4175   -1.3634 C   0  0  0  0  0  0  0  0  0  0  0  0
   -3.0961   -0.9635   -1.2964 C   0  0  0  0  0  0  0  0  0  0  0  0
   -3.4278   -1.6870   -2.0238 H   0  0  0  0  0  0  0  0  0  0  0  0
   -1.1634   -0.7172   -2.1568 H   0  0  0  0  0  0  0  0  0  0  0  0
   -0.1187    1.0340   -0.5373 N   0  0  0  0  0  0  0  0  0  0  0  0
    0.4984    1.9518    0.2357 C   0  0  0  0  0  0  0  0  0  0  0  0
    0.0071    2.5746    1.1464 O   0  0  0  0  0  0  0  0  0  0  0  0
    1.9491    2.2471   -0.1637 C   0  0  0  0  0  0  0  0  0  0  0  0
    2.5141    2.4644    0.7425 H   0  0  0  0  0  0  0  0  0  0  0  0
    1.9683    3.1239   -0.8144 H   0  0  0  0  0  0  0  0  0  0  0  0
    2.8168    0.9465   -1.0834 S   0  0  0  0  0  0  0  0  0  0  0  0
    2.8234   -0.2828    0.1327 C   0  0  0  0  0  0  0  0  0  0  0  0
    2.2621   -0.2474    1.3232 N   0  0  0  0  0  0  0  0  0  0  0  0
    2.5389   -1.4125    1.8854 N   0  0  0  0  0  0  0  0  0  0  0  0
    3.2247   -2.1539    1.1243 N   0  0  0  0  0  0  0  0  0  0  0  0
    3.4397   -1.4847   -0.0141 N   0  0  0  0  0  0  0  0  0  0  0  0
    4.1851   -2.0012   -1.1192 C   0  0  0  0  0  0  0  0  0  0  0  0
    3.5335   -2.1397   -1.9838 H   0  0  0  0  0  0  0  0  0  0  0  0
    4.6036   -2.9584   -0.8160 H   0  0  0  0  0  0  0  0  0  0  0  0
    4.9851   -1.3090   -1.3854 H   0  0  0  0  0  0  0  0  0  0  0  0
    0.4232    0.6295   -1.2920 H   0  0  0  0  0  0  0  0  0  0  0  0
   -1.9716    1.6074    1.3343 H   0  0  0  0  0  0  0  0  0  0  0  0
   -4.2069    0.6497    1.4678 H   0  0  0  0  0  0  0  0  0  0  0  0
   -6.3855    0.2008    0.6843 H   0  0  0  0  0  0  0  0  0  0  0  0
   -7.0135   -1.4543    0.4914 H   0  0  0  0  0  0  0  0  0  0  0  0
  1  2  1  0
  1  3  1  0
  1 31  1  0
  1 32  1  0
  3  4  1  0
  4  5  2  0
  4  9  1  0
  5  6  1  0
  5 30  1  0
  6  7  2  0
  6 29  1  0
  7  8  1  0
  7 12  1  0
  8  9  2  0
  8 11  1  0
  9 10  1  0
 12 13  1  0
 12 28  1  0
 13 14  2  0
 13 15  1  0
 15 16  1  0
 15 17  1  0
 15 18  1  0
 18 19  1  0
 19 20  2  0
 19 23  1  0
 20 21  1  0
 21 22  2  0
 22 23  1  0
 23 24  1  0
 24 25  1  0
 24 26  1  0
 24 27  1  0
M  END
$$$$

     RDKit          3D

 32 33  0  0  0  0  0  0  0  0999 V2000
   -5.5883   -0.9438    0.7084 C   0  0  0  0  0  0  0  0  0  0  0  0
   -5.6990   -0.2425    1.5419 H   0  0  0  0  0  0  0  0  0  0  0  0
   -4.9281   -0.3496   -0.3832 O   0  0  0  0  0  0  0  0  0  0  0  0
   -3.6484    0.0778   -0.2145 C   0  0  0  0  0  0  0  0  0  0  0  0
   -2.9325    0.0124    0.9752 C   0  0  0  0  0  0  0  0  0  0  0  0
   -1.6320    0.4823    1.0389 C   0  0  0  0  0  0  0  0  0  0  0  0
   -1.0270    1.0204   -0.0868 C   0  0  0  0  0  0  0  0  0  0  0  0
   -1.7410    1.0865   -1.2818 C   0  0  0  0  0  0  0  0  0  0  0  0
   -3.0344    0.6236   -1.3445 C   0  0  0  0  0  0  0  0  0  0  0  0
   -3.5949    0.6655   -2.2643 H   0  0  0  0  0  0  0  0  0  0  0  0
   -1.2724    1.4927   -2.1664 H   0  0  0  0  0  0  0  0  0  0  0  0
    0.2955    1.4983   -0.0923 N   0  0  0  0  0  0  0  0  0  0  0  0
    1.2322    1.3792    0.8685 C   0  0  0  0  0  0  0  0  0  0  0  0
    1.0672    0.9325    1.9858 O   0  0  0  0  0  0  0  0  0  0  0  0
    2.6155    1.8425    0.4218 C   0  0  0  0  0  0  0  0  0  0  0  0
    3.3157    1.7631    1.2529 H   0  0  0  0  0  0  0  0  0  0  0  0
    2.5997    2.8673    0.0525 H   0  0  0  0  0  0  0  0  0  0  0  0
    3.2126    0.8173   -0.9861 S   0  0  0  0  0  0  0  0  0  0  0  0
    2.2858   -0.6321   -0.6874 C   0  0  0  0  0  0  0  0  0  0  0  0
    1.3735   -1.1443   -1.4837 N   0  0  0  0  0  0  0  0  0  0  0  0
    0.9418   -2.2394   -0.8858 N   0  0  0  0  0  0  0  0  0  0  0  0
    1.5305   -2.4268    0.2232 N   0  0  0  0  0  0  0  0  0  0  0  0
    2.4043   -1.4409    0.3980 N   0  0  0  0  0  0  0  0  0  0  0  0
    3.2313   -1.3196    1.5582 C   0  0  0  0  0  0  0  0  0  0  0  0
    2.7587   -0.6466    2.2784 H   0  0  0  0  0  0  0  0  0  0  0  0
    4.2088   -0.9321    1.2698 H   0  0  0  0  0  0  0  0  0  0  0  0
    3.3318   -2.3078    2.0019 H   0  0  0  0  0  0  0  0  0  0  0  0
    0.6017    1.8377   -0.9960 H   0  0  0  0  0  0  0  0  0  0  0  0
   -1.0884    0.4222    1.9667 H   0  0  0  0  0  0  0  0  0  0  0  0
   -3.3711   -0.4052    1.8671 H   0  0  0  0  0  0  0  0  0  0  0  0
   -6.5744   -1.2217    0.3398 H   0  0  0  0  0  0  0  0  0  0  0  0
   -5.0651   -1.8409    1.0538 H   0  0  0  0  0  0  0  0  0  0  0  0
  1  2  1  0
  1  3  1  0
  1 31  1  0
  1 32  1  0
  3  4  1  0
  4  5  2  0
  4  9  1  0
  5  6  1  0
  5 30  1  0
  6  7  2  0
  6 29  1  0
  7  8  1  0
  7 12  1  0
  8  9  2  0
  8 11  1  0
  9 10  1  0
 12 13  1  0
 12 28  1  0
 13 14  2  0
 13 15  1  0
 15 16  1  0
 15 17  1  0
 15 18  1  0
 18 19  1  0
 19 20  2  0
 19 23  1  0
 20 21  1  0
 21 22  2  0
 22 23  1  0
 23 24  1  0
 24 25  1  0
 24 26  1  0
 24 27  1  0
M  END
$$$$

     RDKit          3D

 32 33  0  0  0  0  0  0  0  0999 V2000
    5.6413   -0.9065   -0.4984 C   0  0  0  0  0  0  0  0  0  0  0  0
    6.5845   -1.1576   -0.0158 H   0  0  0  0  0  0  0  0  0  0  0  0
    4.8591   -0.2881    0.4947 O   0  0  0  0  0  0  0  0  0  0  0  0
    3.5979    0.1078    0.1764 C   0  0  0  0  0  0  0  0  0  0  0  0
    3.0187   -0.0077   -1.0833 C   0  0  0  0  0  0  0  0  0  0  0  0
    1.7245    0.4311   -1.2908 C   0  0  0  0  0  0  0  0  0  0  0  0
    0.9888    0.9884   -0.2538 C   0  0  0  0  0  0  0  0  0  0  0  0
    1.5647    1.1102    1.0071 C   0  0  0  0  0  0  0  0  0  0  0  0
    2.8544    0.6731    1.2138 C   0  0  0  0  0  0  0  0  0  0  0  0
    3.3129    0.7564    2.1858 H   0  0  0  0  0  0  0  0  0  0  0  0
    0.9997    1.5347    1.8195 H   0  0  0  0  0  0  0  0  0  0  0  0
   -0.3286    1.3981   -0.5322 N   0  0  0  0  0  0  0  0  0  0  0  0
   -1.3295    1.6095    0.3452 C   0  0  0  0  0  0  0  0  0  0  0  0
   -1.2348    1.6243    1.5553 O   0  0  0  0  0  0  0  0  0  0  0  0
   -2.6864    1.8135   -0.3227 C   0  0  0  0  0  0  0  0  0  0  0  0
   -2.6680    2.6496   -1.0212 H   0  0  0  0  0  0  0  0  0  0  0  0
   -3.4458    1.9898    0.4387 H   0  0  0  0  0  0  0  0  0  0  0  0
   -3.1516    0.3421   -1.3261 S   0  0  0  0  0  0  0  0  0  0  0  0
   -2.1976   -0.8724   -0.5112 C   0  0  0  0  0  0  0  0  0  0  0  0
   -1.2265   -1.5775   -1.0489 N   0  0  0  0  0  0  0  0  0  0  0  0
   -0.7944   -2.3864   -0.0987 N   0  0  0  0  0  0  0  0  0  0  0  0
   -1.4373   -2.2183    0.9826 N   0  0  0  0  0  0  0  0  0  0  0  0
   -2.3501   -1.2741    0.7778 N   0  0  0  0  0  0  0  0  0  0  0  0
   -3.2453   -0.8121    1.7929 C   0  0  0  0  0  0  0  0  0  0  0  0
   -3.3350   -1.5966    2.5412 H   0  0  0  0  0  0  0  0  0  0  0  0
   -4.2183   -0.5976    1.3500 H   0  0  0  0  0  0  0  0  0  0  0  0
   -2.8402    0.0886    2.2614 H   0  0  0  0  0  0  0  0  0  0  0  0
   -0.5799    1.3291   -1.5111 H   0  0  0  0  0  0  0  0  0  0  0  0
    1.2776    0.3216   -2.2683 H   0  0  0  0  0  0  0  0  0  0  0  0
    3.5575   -0.4430   -1.9092 H   0  0  0  0  0  0  0  0  0  0  0  0
    5.1694   -1.8220   -0.8686 H   0  0  0  0  0  0  0  0  0  0  0  0
    5.8345   -0.2303   -1.3376 H   0  0  0  0  0  0  0  0  0  0  0  0
  1  2  1  0
  1  3  1  0
  1 31  1  0
  1 32  1  0
  3  4  1  0
  4  5  2  0
  4  9  1  0
  5  6  1  0
  5 30  1  0
  6  7  2  0
  6 29  1  0
  7  8  1  0
  7 12  1  0
  8  9  2  0
  8 11  1  0
  9 10  1  0
 12 13  1  0
 12 28  1  0
 13 14  2  0
 13 15  1  0
 15 16  1  0
 15 17  1  0
 15 18  1  0
 18 19  1  0
 19 20  2  0
 19 23  1  0
 20 21  1  0
 21 22  2  0
 22 23  1  0
 23 24  1  0
 24 25  1  0
 24 26  1  0
 24 27  1  0
M  END
$$$$

     RDKit          3D

 32 33  0  0  0  0  0  0  0  0999 V2000
   -5.6151   -0.9245   -0.4789 C   0  0  0  0  0  0  0  0  0  0  0  0
   -6.5597   -1.1627    0.0073 H   0  0  0  0  0  0  0  0  0  0  0  0
   -4.8421   -0.2654    0.4950 O   0  0  0  0  0  0  0  0  0  0  0  0
   -3.5807    0.1242    0.1697 C   0  0  0  0  0  0  0  0  0  0  0  0
   -2.9933   -0.0354   -1.0814 C   0  0  0  0  0  0  0  0  0  0  0  0
   -1.6995    0.4001   -1.2971 C   0  0  0  0  0  0  0  0  0  0  0  0
   -0.9722    0.9974   -0.2766 C   0  0  0  0  0  0  0  0  0  0  0  0
   -1.5564    1.1643    0.9752 C   0  0  0  0  0  0  0  0  0  0  0  0
   -2.8459    0.7305    1.1900 C   0  0  0  0  0  0  0  0  0  0  0  0
   -3.3109    0.8481    2.1554 H   0  0  0  0  0  0  0  0  0  0  0  0
   -0.9978    1.6202    1.7749 H   0  0  0  0  0  0  0  0  0  0  0  0
    0.3472    1.3981   -0.5602 N   0  0  0  0  0  0  0  0  0  0  0  0
    1.3460    1.6184    0.3176 C   0  0  0  0  0  0  0  0  0  0  0  0
    1.2445    1.6618    1.5264 O   0  0  0  0  0  0  0  0  0  0  0  0
    2.7089    1.7918   -0.3465 C   0  0  0  0  0  0  0  0  0  0  0  0
    3.4660    1.9743    0.4157 H   0  0  0  0  0  0  0  0  0  0  0  0
    2.7049    2.6136   -1.0620 H   0  0  0  0  0  0  0  0  0  0  0  0
    3.1625    0.2945   -1.3166 S   0  0  0  0  0  0  0  0  0  0  0  0
    2.1793   -0.8905   -0.4929 C   0  0  0  0  0  0  0  0  0  0  0  0
    1.2035   -1.5890   -1.0310 N   0  0  0  0  0  0  0  0  0  0  0  0
    0.7468   -2.3749   -0.0730 N   0  0  0  0  0  0  0  0  0  0  0  0
    1.3792   -2.1990    1.0133 N   0  0  0  0  0  0  0  0  0  0  0  0
    2.3096   -1.2732    0.8043 N   0  0  0  0  0  0  0  0  0  0  0  0
    3.2004   -0.8095    1.8225 C   0  0  0  0  0  0  0  0  0  0  0  0
    2.8072    0.1076    2.2688 H   0  0  0  0  0  0  0  0  0  0  0  0
    4.1831   -0.6223    1.3889 H   0  0  0  0  0  0  0  0  0  0  0  0
    3.2646   -1.5814    2.5863 H   0  0  0  0  0  0  0  0  0  0  0  0
    0.6024    1.3034   -1.5360 H   0  0  0  0  0  0  0  0  0  0  0  0
   -1.2457    0.2554   -2.2667 H   0  0  0  0  0  0  0  0  0  0  0  0
   -3.5254   -0.5032   -1.8939 H   0  0  0  0  0  0  0  0  0  0  0  0
   -5.8069   -0.2809   -1.3437 H   0  0  0  0  0  0  0  0  0  0  0  0
   -5.1360   -1.8504   -0.8122 H   0  0  0  0  0  0  0  0  0  0  0  0
  1  2  1  0
  1  3  1  0
  1 31  1  0
  1 32  1  0
  3  4  1  0
  4  5  2  0
  4  9  1  0
  5  6  1  0
  5 30  1  0
  6  7  2  0
  6 29  1  0
  7  8  1  0
  7 12  1  0
  8  9  2  0
  8 11  1  0
  9 10  1  0
 12 13  1  0
 12 28  1  0
 13 14  2  0
 13 15  1  0
 15 16  1  0
 15 17  1  0
 15 18  1  0
 18 19  1  0
 19 20  2  0
 19 23  1  0
 20 21  1  0
 21 22  2  0
 22 23  1  0
 23 24  1  0
 24 25  1  0
 24 26  1  0
 24 27  1  0
M  END
$$$$

     RDKit          3D

 32 33  0  0  0  0  0  0  0  0999 V2000
    5.8582    1.8251    0.3843 C   0  0  0  0  0  0  0  0  0  0  0  0
    5.8919    1.6155    1.4586 H   0  0  0  0  0  0  0  0  0  0  0  0
    5.3210    0.7444   -0.3375 O   0  0  0  0  0  0  0  0  0  0  0  0
    4.0403    0.3606   -0.0792 C   0  0  0  0  0  0  0  0  0  0  0  0
    3.2047    0.9501    0.8627 C   0  0  0  0  0  0  0  0  0  0  0  0
    1.9188    0.4708    1.0391 C   0  0  0  0  0  0  0  0  0  0  0  0
    1.4437   -0.5964    0.2879 C   0  0  0  0  0  0  0  0  0  0  0  0
    2.2784   -1.1874   -0.6573 C   0  0  0  0  0  0  0  0  0  0  0  0
    3.5582   -0.7108   -0.8337 C   0  0  0  0  0  0  0  0  0  0  0  0
    4.2146   -1.1577   -1.5628 H   0  0  0  0  0  0  0  0  0  0  0  0
    1.9164   -2.0119   -1.2474 H   0  0  0  0  0  0  0  0  0  0  0  0
    0.1292   -1.0270    0.5210 N   0  0  0  0  0  0  0  0  0  0  0  0
   -0.5526   -2.0225   -0.0821 C   0  0  0  0  0  0  0  0  0  0  0  0
   -0.1223   -2.7977   -0.9023 O   0  0  0  0  0  0  0  0  0  0  0  0
   -2.0004   -2.1895    0.3958 C   0  0  0  0  0  0  0  0  0  0  0  0
   -2.0425   -3.0115    1.1132 H   0  0  0  0  0  0  0  0  0  0  0  0
   -2.6157   -2.4416   -0.4679 H   0  0  0  0  0  0  0  0  0  0  0  0
   -2.7563   -0.7737    1.2405 S   0  0  0  0  0  0  0  0  0  0  0  0
   -2.8229    0.3311   -0.0884 C   0  0  0  0  0  0  0  0  0  0  0  0
   -2.3614    0.1596   -1.3097 N   0  0  0  0  0  0  0  0  0  0  0  0
   -2.6466    1.2751   -1.9612 N   0  0  0  0  0  0  0  0  0  0  0  0
   -3.2452    2.1123   -1.2265 N   0  0  0  0  0  0  0  0  0  0  0  0
   -3.3877    1.5647   -0.0140 N   0  0  0  0  0  0  0  0  0  0  0  0
   -4.0269    2.2127    1.0883 C   0  0  0  0  0  0  0  0  0  0  0  0
   -4.4111    3.1661    0.7322 H   0  0  0  0  0  0  0  0  0  0  0  0
   -3.3117    2.3792    1.8957 H   0  0  0  0  0  0  0  0  0  0  0  0
   -4.8450    1.5950    1.4617 H   0  0  0  0  0  0  0  0  0  0  0  0
   -0.3705   -0.4847    1.2162 H   0  0  0  0  0  0  0  0  0  0  0  0
    1.2784    0.9389    1.7747 H   0  0  0  0  0  0  0  0  0  0  0  0
    3.5372    1.7811    1.4644 H   0  0  0  0  0  0  0  0  0  0  0  0
    6.8734    1.9525    0.0119 H   0  0  0  0  0  0  0  0  0  0  0  0
    5.2924    2.7464    0.2108 H   0  0  0  0  0  0  0  0  0  0  0  0
  1  2  1  0
  1  3  1  0
  1 31  1  0
  1 32  1  0
  3  4  1  0
  4  5  2  0
  4  9  1  0
  5  6  1  0
  5 30  1  0
  6  7  2  0
  6 29  1  0
  7  8  1  0
  7 12  1  0
  8  9  2  0
  8 11  1  0
  9 10  1  0
 12 13  1  0
 12 28  1  0
 13 14  2  0
 13 15  1  0
 15 16  1  0
 15 17  1  0
 15 18  1  0
 18 19  1  0
 19 20  2  0
 19 23  1  0
 20 21  1  0
 21 22  2  0
 22 23  1  0
 23 24  1  0
 24 25  1  0
 24 26  1  0
 24 27  1  0
M  END
$$$$

     RDKit          3D

 32 33  0  0  0  0  0  0  0  0999 V2000
   -5.8704   -1.8735    0.3543 C   0  0  0  0  0  0  0  0  0  0  0  0
   -5.3077   -2.7805    0.1100 H   0  0  0  0  0  0  0  0  0  0  0  0
   -5.3584   -0.7499   -0.3187 O   0  0  0  0  0  0  0  0  0  0  0  0
   -4.0720   -0.3752   -0.0765 C   0  0  0  0  0  0  0  0  0  0  0  0
   -3.6166    0.7413   -0.7803 C   0  0  0  0  0  0  0  0  0  0  0  0
   -2.3338    1.2136   -0.6139 C   0  0  0  0  0  0  0  0  0  0  0  0
   -1.4690    0.5727    0.2698 C   0  0  0  0  0  0  0  0  0  0  0  0
   -1.9177   -0.5395    0.9703 C   0  0  0  0  0  0  0  0  0  0  0  0
   -3.2064   -1.0148    0.8037 C   0  0  0  0  0  0  0  0  0  0  0  0
   -3.5177   -1.8817    1.3647 H   0  0  0  0  0  0  0  0  0  0  0  0
   -1.2541   -1.0464    1.6579 H   0  0  0  0  0  0  0  0  0  0  0  0
   -0.1507    0.9976    0.4913 N   0  0  0  0  0  0  0  0  0  0  0  0
    0.5107    2.0272   -0.0749 C   0  0  0  0  0  0  0  0  0  0  0  0
    0.0584    2.8361   -0.8501 O   0  0  0  0  0  0  0  0  0  0  0  0
    1.9681    2.1862    0.3757 C   0  0  0  0  0  0  0  0  0  0  0  0
    2.0288    3.0249    1.0721 H   0  0  0  0  0  0  0  0  0  0  0  0
    2.5717    2.4128   -0.5032 H   0  0  0  0  0  0  0  0  0  0  0  0
    2.7299    0.7849    1.2392 S   0  0  0  0  0  0  0  0  0  0  0  0
    2.8559   -0.3182   -0.0871 C   0  0  0  0  0  0  0  0  0  0  0  0
    2.4178   -0.1603   -1.3188 N   0  0  0  0  0  0  0  0  0  0  0  0
    2.7509   -1.2668   -1.9631 N   0  0  0  0  0  0  0  0  0  0  0  0
    3.3568   -2.0861   -1.2143 N   0  0  0  0  0  0  0  0  0  0  0  0
    3.4550   -1.5347    0.0008 N   0  0  0  0  0  0  0  0  0  0  0  0
    4.0875   -2.1636    1.1180 C   0  0  0  0  0  0  0  0  0  0  0  0
    4.8544   -1.5066    1.5306 H   0  0  0  0  0  0  0  0  0  0  0  0
    4.5376   -3.0887    0.7644 H   0  0  0  0  0  0  0  0  0  0  0  0
    3.3532   -2.3830    1.8951 H   0  0  0  0  0  0  0  0  0  0  0  0
    0.3678    0.4247    1.1470 H   0  0  0  0  0  0  0  0  0  0  0  0
   -1.9929    2.0736   -1.1645 H   0  0  0  0  0  0  0  0  0  0  0  0
   -4.2962    1.2271   -1.4617 H   0  0  0  0  0  0  0  0  0  0  0  0
   -5.8718   -1.7272    1.4396 H   0  0  0  0  0  0  0  0  0  0  0  0
   -6.8962   -1.9833    0.0062 H   0  0  0  0  0  0  0  0  0  0  0  0
  1  2  1  0
  1  3  1  0
  1 31  1  0
  1 32  1  0
  3  4  1  0
  4  5  2  0
  4  9  1  0
  5  6  1  0
  5 30  1  0
  6  7  2  0
  6 29  1  0
  7  8  1  0
  7 12  1  0
  8  9  2  0
  8 11  1  0
  9 10  1  0
 12 13  1  0
 12 28  1  0
 13 14  2  0
 13 15  1  0
 15 16  1  0
 15 17  1  0
 15 18  1  0
 18 19  1  0
 19 20  2  0
 19 23  1  0
 20 21  1  0
 21 22  2  0
 22 23  1  0
 23 24  1  0
 24 25  1  0
 24 26  1  0
 24 27  1  0
M  END
$$$$
