
     RDKit          3D

 23 24  0  0  0  0  0  0  0  0999 V2000
   -2.4548   -1.5141    0.8500 O   0  0  0  0  0  0  0  0  0  0  0  0
   -1.5187   -1.3467    1.0168 H   0  0  0  0  0  0  0  0  0  0  0  0
   -3.0264   -0.3362    0.3421 C   0  0  0  0  0  0  0  0  0  0  0  0
   -4.0405   -0.6070    0.0381 H   0  0  0  0  0  0  0  0  0  0  0  0
   -2.2524    0.2387   -0.8561 C   0  0  0  0  0  0  0  0  0  0  0  0
   -0.9049    0.7317   -0.4407 C   0  0  0  0  0  0  0  0  0  0  0  0
   -0.5776    2.0010   -0.0623 C   0  0  0  0  0  0  0  0  0  0  0  0
    0.7423    2.0638    0.2974 N   0  0  0  0  0  0  0  0  0  0  0  0
    1.2990    0.8263    0.1587 C   0  0  0  0  0  0  0  0  0  0  0  0
    2.5950    0.3863    0.3966 C   0  0  0  0  0  0  0  0  0  0  0  0
    2.8707   -0.9432    0.1620 C   0  0  0  0  0  0  0  0  0  0  0  0
    1.8843   -1.8189   -0.3011 C   0  0  0  0  0  0  0  0  0  0  0  0
    0.5981   -1.3908   -0.5382 C   0  0  0  0  0  0  0  0  0  0  0  0
    0.2866   -0.0496   -0.3048 C   0  0  0  0  0  0  0  0  0  0  0  0
   -0.1548   -2.0767   -0.8977 H   0  0  0  0  0  0  0  0  0  0  0  0
    2.1438   -2.8527   -0.4752 H   0  0  0  0  0  0  0  0  0  0  0  0
    3.8680   -1.3191    0.3361 H   0  0  0  0  0  0  0  0  0  0  0  0
    3.3571    1.0650    0.7510 H   0  0  0  0  0  0  0  0  0  0  0  0
    1.2252    2.8918    0.6008 H   0  0  0  0  0  0  0  0  0  0  0  0
   -1.1966    2.8775   -0.0300 H   0  0  0  0  0  0  0  0  0  0  0  0
   -2.8327    1.0595   -1.2803 H   0  0  0  0  0  0  0  0  0  0  0  0
   -2.1464   -0.5429   -1.6108 H   0  0  0  0  0  0  0  0  0  0  0  0
   -3.0906    0.4303    1.1303 H   0  0  0  0  0  0  0  0  0  0  0  0
  1  2  1  0
  1  3  1  0
  3  4  1  0
  3  5  1  0
  3 23  1  0
  5  6  1  0
  5 21  1  0
  5 22  1  0
  6  7  2  0
  6 14  1  0
  7  8  1  0
  7 20  1  0
  8  9  1  0
  8 19  1  0
  9 10  1  0
  9 14  2  0
 10 11  2  0
 10 18  1  0
 11 12  1  0
 11 17  1  0
 12 13  2  0
 12 16  1  0
 13 14  1  0
 13 15  1  0
M  END
$$$$

     RDKit          3D

 23 24  0  0  0  0  0  0  0  0999 V2000
    3.2251    0.0990    1.1394 O   0  0  0  0  0  0  0  0  0  0  0  0
    2.4989   -0.5137    1.3123 H   0  0  0  0  0  0  0  0  0  0  0  0
    2.7477    1.0890    0.2625 C   0  0  0  0  0  0  0  0  0  0  0  0
    2.0262    1.7397    0.7787 H   0  0  0  0  0  0  0  0  0  0  0  0
    2.0865    0.4881   -0.9887 C   0  0  0  0  0  0  0  0  0  0  0  0
    0.8780   -0.3018   -0.6085 C   0  0  0  0  0  0  0  0  0  0  0  0
    0.8060   -1.6500   -0.4068 C   0  0  0  0  0  0  0  0  0  0  0  0
   -0.4565   -2.0026   -0.0070 N   0  0  0  0  0  0  0  0  0  0  0  0
   -1.2288   -0.8793    0.0612 C   0  0  0  0  0  0  0  0  0  0  0  0
   -2.5626   -0.7199    0.4154 C   0  0  0  0  0  0  0  0  0  0  0  0
   -3.0784    0.5576    0.3974 C   0  0  0  0  0  0  0  0  0  0  0  0
   -2.2910    1.6545    0.0351 C   0  0  0  0  0  0  0  0  0  0  0  0
   -0.9693    1.5032   -0.3174 C   0  0  0  0  0  0  0  0  0  0  0  0
   -0.4183    0.2219   -0.3067 C   0  0  0  0  0  0  0  0  0  0  0  0
   -0.3686    2.3561   -0.5970 H   0  0  0  0  0  0  0  0  0  0  0  0
   -2.7363    2.6386    0.0339 H   0  0  0  0  0  0  0  0  0  0  0  0
   -4.1117    0.7185    0.6673 H   0  0  0  0  0  0  0  0  0  0  0  0
   -3.1706   -1.5684    0.6937 H   0  0  0  0  0  0  0  0  0  0  0  0
   -0.7678   -2.9395    0.1827 H   0  0  0  0  0  0  0  0  0  0  0  0
    1.5688   -2.3954   -0.5325 H   0  0  0  0  0  0  0  0  0  0  0  0
    2.8085   -0.1584   -1.4911 H   0  0  0  0  0  0  0  0  0  0  0  0
    1.8098    1.2990   -1.6638 H   0  0  0  0  0  0  0  0  0  0  0  0
    3.6196    1.6845   -0.0172 H   0  0  0  0  0  0  0  0  0  0  0  0
  1  2  1  0
  1  3  1  0
  3  4  1  0
  3  5  1  0
  3 23  1  0
  5  6  1  0
  5 21  1  0
  5 22  1  0
  6  7  2  0
  6 14  1  0
  7  8  1  0
  7 20  1  0
  8  9  1  0
  8 19  1  0
  9 10  1  0
  9 14  2  0
 10 11  2  0
 10 18  1  0
 11 12  1  0
 11 17  1  0
 12 13  2  0
 12 16  1  0
 13 14  1  0
 13 15  1  0
M  END
$$$$

     RDKit          3D

 23 24  0  0  0  0  0  0  0  0999 V2000
   -4.0840   -0.8191   -0.3427 O   0  0  0  0  0  0  0  0  0  0  0  0
   -4.0681   -1.4852    0.3538 H   0  0  0  0  0  0  0  0  0  0  0  0
   -2.7664   -0.3842   -0.5796 C   0  0  0  0  0  0  0  0  0  0  0  0
   -2.1516   -1.2042   -0.9780 H   0  0  0  0  0  0  0  0  0  0  0  0
   -2.0967    0.1952    0.6755 C   0  0  0  0  0  0  0  0  0  0  0  0
   -0.7213    0.6832    0.3675 C   0  0  0  0  0  0  0  0  0  0  0  0
   -0.3354    1.9697    0.1318 C   0  0  0  0  0  0  0  0  0  0  0  0
    1.0032    2.0188   -0.1527 N   0  0  0  0  0  0  0  0  0  0  0  0
    1.5119    0.7538   -0.1089 C   0  0  0  0  0  0  0  0  0  0  0  0
    2.8043    0.2916   -0.3228 C   0  0  0  0  0  0  0  0  0  0  0  0
    3.0247   -1.0636   -0.2067 C   0  0  0  0  0  0  0  0  0  0  0  0
    1.9873   -1.9426    0.1171 C   0  0  0  0  0  0  0  0  0  0  0  0
    0.7050   -1.4905    0.3302 C   0  0  0  0  0  0  0  0  0  0  0  0
    0.4491   -0.1239    0.2163 C   0  0  0  0  0  0  0  0  0  0  0  0
   -0.0879   -2.1792    0.5823 H   0  0  0  0  0  0  0  0  0  0  0  0
    2.2042   -2.9976    0.2002 H   0  0  0  0  0  0  0  0  0  0  0  0
    4.0174   -1.4579   -0.3668 H   0  0  0  0  0  0  0  0  0  0  0  0
    3.6058    0.9723   -0.5707 H   0  0  0  0  0  0  0  0  0  0  0  0
    1.5262    2.8532   -0.3548 H   0  0  0  0  0  0  0  0  0  0  0  0
   -0.9240    2.8671    0.1522 H   0  0  0  0  0  0  0  0  0  0  0  0
   -2.0488   -0.5823    1.4442 H   0  0  0  0  0  0  0  0  0  0  0  0
   -2.7095    1.0155    1.0539 H   0  0  0  0  0  0  0  0  0  0  0  0
   -2.8461    0.3885   -1.3476 H   0  0  0  0  0  0  0  0  0  0  0  0
  1  2  1  0
  1  3  1  0
  3  4  1  0
  3  5  1  0
  3 23  1  0
  5  6  1  0
  5 21  1  0
  5 22  1  0
  6  7  2  0
  6 14  1  0
  7  8  1  0
  7 20  1  0
  8  9  1  0
  8 19  1  0
  9 10  1  0
  9 14  2  0
 10 11  2  0
 10 18  1  0
 11 12  1  0
 11 17  1  0
 12 13  2  0
 12 16  1  0
 13 14  1  0
 13 15  1  0
M  END
$$$$

     RDKit          3D

 23 24  0  0  0  0  0  0  0  0999 V2000
    3.2202    0.1187   -1.1560 O   0  0  0  0  0  0  0  0  0  0  0  0
    3.7782   -0.5048   -0.6774 H   0  0  0  0  0  0  0  0  0  0  0  0
    2.7536    1.0873   -0.2496 C   0  0  0  0  0  0  0  0  0  0  0  0
    3.5813    1.7380    0.0739 H   0  0  0  0  0  0  0  0  0  0  0  0
    2.0757    0.4738    0.9852 C   0  0  0  0  0  0  0  0  0  0  0  0
    0.8690   -0.3141    0.5981 C   0  0  0  0  0  0  0  0  0  0  0  0
    0.7899   -1.6597    0.3942 C   0  0  0  0  0  0  0  0  0  0  0  0
   -0.4751   -2.0055   -0.0003 N   0  0  0  0  0  0  0  0  0  0  0  0
   -1.2406   -0.8786   -0.0695 C   0  0  0  0  0  0  0  0  0  0  0  0
   -2.5745   -0.7120   -0.4196 C   0  0  0  0  0  0  0  0  0  0  0  0
   -3.0854    0.5675   -0.3949 C   0  0  0  0  0  0  0  0  0  0  0  0
   -2.2925    1.6591   -0.0294 C   0  0  0  0  0  0  0  0  0  0  0  0
   -0.9704    1.5004    0.3192 C   0  0  0  0  0  0  0  0  0  0  0  0
   -0.4245    0.2172    0.3019 C   0  0  0  0  0  0  0  0  0  0  0  0
   -0.3662    2.3505    0.6002 H   0  0  0  0  0  0  0  0  0  0  0  0
   -2.7335    2.6453   -0.0234 H   0  0  0  0  0  0  0  0  0  0  0  0
   -4.1185    0.7341   -0.6626 H   0  0  0  0  0  0  0  0  0  0  0  0
   -3.1867   -1.5564   -0.7017 H   0  0  0  0  0  0  0  0  0  0  0  0
   -0.7826   -2.9366   -0.2219 H   0  0  0  0  0  0  0  0  0  0  0  0
    1.5488   -2.4107    0.5092 H   0  0  0  0  0  0  0  0  0  0  0  0
    1.7930    1.2827    1.6614 H   0  0  0  0  0  0  0  0  0  0  0  0
    2.7912   -0.1730    1.5014 H   0  0  0  0  0  0  0  0  0  0  0  0
    2.0348    1.6879   -0.8107 H   0  0  0  0  0  0  0  0  0  0  0  0
  1  2  1  0
  1  3  1  0
  3  4  1  0
  3  5  1  0
  3 23  1  0
  5  6  1  0
  5 21  1  0
  5 22  1  0
  6  7  2  0
  6 14  1  0
  7  8  1  0
  7 20  1  0
  8  9  1  0
  8 19  1  0
  9 10  1  0
  9 14  2  0
 10 11  2  0
 10 18  1  0
 11 12  1  0
 11 17  1  0
 12 13  2  0
 12 16  1  0
 13 14  1  0
 13 15  1  0
M  END
$$$$

     RDKit          3D

 23 24  0  0  0  0  0  0  0  0999 V2000
   -3.2829   -0.2237   -1.2165 O   0  0  0  0  0  0  0  0  0  0  0  0
   -2.4926    0.2865   -1.4338 H   0  0  0  0  0  0  0  0  0  0  0  0
   -3.3075   -0.4005    0.1788 C   0  0  0  0  0  0  0  0  0  0  0  0
   -3.5896    0.5387    0.6779 H   0  0  0  0  0  0  0  0  0  0  0  0
   -1.9693   -0.8987    0.7319 C   0  0  0  0  0  0  0  0  0  0  0  0
   -0.8461    0.0523    0.4550 C   0  0  0  0  0  0  0  0  0  0  0  0
   -0.8910    1.4156    0.3869 C   0  0  0  0  0  0  0  0  0  0  0  0
    0.3539    1.9178    0.1095 N   0  0  0  0  0  0  0  0  0  0  0  0
    1.2350    0.8828   -0.0034 C   0  0  0  0  0  0  0  0  0  0  0  0
    2.5981    0.8819   -0.2718 C   0  0  0  0  0  0  0  0  0  0  0  0
    3.2352   -0.3383   -0.3278 C   0  0  0  0  0  0  0  0  0  0  0  0
    2.5371   -1.5320   -0.1232 C   0  0  0  0  0  0  0  0  0  0  0  0
    1.1870   -1.5372    0.1430 C   0  0  0  0  0  0  0  0  0  0  0  0
    0.5138   -0.3171    0.2058 C   0  0  0  0  0  0  0  0  0  0  0  0
    0.6587   -2.4654    0.3018 H   0  0  0  0  0  0  0  0  0  0  0  0
    3.0758   -2.4667   -0.1757 H   0  0  0  0  0  0  0  0  0  0  0  0
    4.2948   -0.3771   -0.5333 H   0  0  0  0  0  0  0  0  0  0  0  0
    3.1355    1.8057   -0.4291 H   0  0  0  0  0  0  0  0  0  0  0  0
    0.5803    2.8930    0.0177 H   0  0  0  0  0  0  0  0  0  0  0  0
   -1.7211    2.0834    0.5193 H   0  0  0  0  0  0  0  0  0  0  0  0
   -1.7344   -1.8622    0.2747 H   0  0  0  0  0  0  0  0  0  0  0  0
   -2.0726   -1.0552    1.8099 H   0  0  0  0  0  0  0  0  0  0  0  0
   -4.0912   -1.1370    0.3712 H   0  0  0  0  0  0  0  0  0  0  0  0
  1  2  1  0
  1  3  1  0
  3  4  1  0
  3  5  1  0
  3 23  1  0
  5  6  1  0
  5 21  1  0
  5 22  1  0
  6  7  2  0
  6 14  1  0
  7  8  1  0
  7 20  1  0
  8  9  1  0
  8 19  1  0
  9 10  1  0
  9 14  2  0
 10 11  2  0
 10 18  1  0
 11 12  1  0
 11 17  1  0
 12 13  2  0
 12 16  1  0
 13 14  1  0
 13 15  1  0
M  END
$$$$

     RDKit          3D

 23 24  0  0  0  0  0  0  0  0999 V2000
   -3.3209   -0.1844    1.1903 O   0  0  0  0  0  0  0  0  0  0  0  0
   -2.5348    0.3317    1.4090 H   0  0  0  0  0  0  0  0  0  0  0  0
   -3.3111   -0.4112   -0.1980 C   0  0  0  0  0  0  0  0  0  0  0  0
   -4.0891   -1.1559   -0.3826 H   0  0  0  0  0  0  0  0  0  0  0  0
   -1.9600   -0.9265   -0.7005 C   0  0  0  0  0  0  0  0  0  0  0  0
   -0.8433    0.0360   -0.4372 C   0  0  0  0  0  0  0  0  0  0  0  0
   -0.8960    1.3995   -0.3825 C   0  0  0  0  0  0  0  0  0  0  0  0
    0.3479    1.9120   -0.1189 N   0  0  0  0  0  0  0  0  0  0  0  0
    1.2360    0.8835   -0.0020 C   0  0  0  0  0  0  0  0  0  0  0  0
    2.6012    0.8932    0.2552 C   0  0  0  0  0  0  0  0  0  0  0  0
    3.2458   -0.3227    0.3190 C   0  0  0  0  0  0  0  0  0  0  0  0
    2.5530   -1.5226    0.1331 C   0  0  0  0  0  0  0  0  0  0  0  0
    1.2010   -1.5382   -0.1226 C   0  0  0  0  0  0  0  0  0  0  0  0
    0.5205   -0.3226   -0.1937 C   0  0  0  0  0  0  0  0  0  0  0  0
    0.6762   -2.4709   -0.2667 H   0  0  0  0  0  0  0  0  0  0  0  0
    3.0974   -2.4536    0.1923 H   0  0  0  0  0  0  0  0  0  0  0  0
    4.3073   -0.3532    0.5161 H   0  0  0  0  0  0  0  0  0  0  0  0
    3.1348    1.8216    0.3981 H   0  0  0  0  0  0  0  0  0  0  0  0
    0.5689    2.8895   -0.0393 H   0  0  0  0  0  0  0  0  0  0  0  0
   -1.7307    2.0615   -0.5156 H   0  0  0  0  0  0  0  0  0  0  0  0
   -2.0382   -1.1248   -1.7737 H   0  0  0  0  0  0  0  0  0  0  0  0
   -1.7338   -1.8715   -0.2017 H   0  0  0  0  0  0  0  0  0  0  0  0
   -3.5824    0.5086   -0.7377 H   0  0  0  0  0  0  0  0  0  0  0  0
  1  2  1  0
  1  3  1  0
  3  4  1  0
  3  5  1  0
  3 23  1  0
  5  6  1  0
  5 21  1  0
  5 22  1  0
  6  7  2  0
  6 14  1  0
  7  8  1  0
  7 20  1  0
  8  9  1  0
  8 19  1  0
  9 10  1  0
  9 14  2  0
 10 11  2  0
 10 18  1  0
 11 12  1  0
 11 17  1  0
 12 13  2  0
 12 16  1  0
 13 14  1  0
 13 15  1  0
M  END
$$$$

     RDKit          3D

 23 24  0  0  0  0  0  0  0  0999 V2000
    3.7748    0.2970   -0.4512 O   0  0  0  0  0  0  0  0  0  0  0  0
    3.7428   -0.0711   -1.3413 H   0  0  0  0  0  0  0  0  0  0  0  0
    3.2493   -0.6547    0.4446 C   0  0  0  0  0  0  0  0  0  0  0  0
    3.9430   -1.5047    0.5386 H   0  0  0  0  0  0  0  0  0  0  0  0
    1.8692   -1.1788    0.0454 C   0  0  0  0  0  0  0  0  0  0  0  0
    0.8070   -0.1248    0.0517 C   0  0  0  0  0  0  0  0  0  0  0  0
    0.9635    1.2286    0.0944 C   0  0  0  0  0  0  0  0  0  0  0  0
   -0.2602    1.8449    0.0822 N   0  0  0  0  0  0  0  0  0  0  0  0
   -1.2371    0.8950    0.0283 C   0  0  0  0  0  0  0  0  0  0  0  0
   -2.6202    1.0185   -0.0038 C   0  0  0  0  0  0  0  0  0  0  0  0
   -3.3637   -0.1406   -0.0593 C   0  0  0  0  0  0  0  0  0  0  0  0
   -2.7502   -1.3962   -0.0822 C   0  0  0  0  0  0  0  0  0  0  0  0
   -1.3801   -1.5255   -0.0506 C   0  0  0  0  0  0  0  0  0  0  0  0
   -0.6011   -0.3702    0.0060 C   0  0  0  0  0  0  0  0  0  0  0  0
   -0.9151   -2.5003   -0.0698 H   0  0  0  0  0  0  0  0  0  0  0  0
   -3.3708   -2.2795   -0.1261 H   0  0  0  0  0  0  0  0  0  0  0  0
   -4.4419   -0.0814   -0.0857 H   0  0  0  0  0  0  0  0  0  0  0  0
   -3.0938    1.9895    0.0138 H   0  0  0  0  0  0  0  0  0  0  0  0
   -0.4098    2.8386    0.1092 H   0  0  0  0  0  0  0  0  0  0  0  0
    1.8680    1.8036    0.1280 H   0  0  0  0  0  0  0  0  0  0  0  0
    1.5879   -1.9743    0.7403 H   0  0  0  0  0  0  0  0  0  0  0  0
    1.9311   -1.6282   -0.9539 H   0  0  0  0  0  0  0  0  0  0  0  0
    3.1934   -0.1473    1.4104 H   0  0  0  0  0  0  0  0  0  0  0  0
  1  2  1  0
  1  3  1  0
  3  4  1  0
  3  5  1  0
  3 23  1  0
  5  6  1  0
  5 21  1  0
  5 22  1  0
  6  7  2  0
  6 14  1  0
  7  8  1  0
  7 20  1  0
  8  9  1  0
  8 19  1  0
  9 10  1  0
  9 14  2  0
 10 11  2  0
 10 18  1  0
 11 12  1  0
 11 17  1  0
 12 13  2  0
 12 16  1  0
 13 14  1  0
 13 15  1  0
M  END
$$$$

     RDKit          3D

 23 24  0  0  0  0  0  0  0  0999 V2000
   -2.4281   -1.2374   -1.1495 O   0  0  0  0  0  0  0  0  0  0  0  0
   -1.9592   -1.9228   -0.6604 H   0  0  0  0  0  0  0  0  0  0  0  0
   -3.0882   -0.4018   -0.2325 C   0  0  0  0  0  0  0  0  0  0  0  0
   -3.3759    0.4856   -0.8015 H   0  0  0  0  0  0  0  0  0  0  0  0
   -2.2117    0.0016    0.9635 C   0  0  0  0  0  0  0  0  0  0  0  0
   -0.9193    0.5984    0.5119 C   0  0  0  0  0  0  0  0  0  0  0  0
   -0.6984    1.8875    0.1246 C   0  0  0  0  0  0  0  0  0  0  0  0
    0.6018    2.0458   -0.2729 N   0  0  0  0  0  0  0  0  0  0  0  0
    1.2495    0.8513   -0.1576 C   0  0  0  0  0  0  0  0  0  0  0  0
    2.5656    0.5072   -0.4377 C   0  0  0  0  0  0  0  0  0  0  0  0
    2.9454   -0.7986   -0.2165 C   0  0  0  0  0  0  0  0  0  0  0  0
    2.0408   -1.7431    0.2763 C   0  0  0  0  0  0  0  0  0  0  0  0
    0.7360   -1.4076    0.5565 C   0  0  0  0  0  0  0  0  0  0  0  0
    0.3186   -0.0944    0.3380 C   0  0  0  0  0  0  0  0  0  0  0  0
    0.0524   -2.1494    0.9454 H   0  0  0  0  0  0  0  0  0  0  0  0
    2.3798   -2.7560    0.4385 H   0  0  0  0  0  0  0  0  0  0  0  0
    3.9608   -1.1018   -0.4249 H   0  0  0  0  0  0  0  0  0  0  0  0
    3.2644    1.2392   -0.8158 H   0  0  0  0  0  0  0  0  0  0  0  0
    1.0082    2.9014   -0.6100 H   0  0  0  0  0  0  0  0  0  0  0  0
   -1.3807    2.7161    0.1084 H   0  0  0  0  0  0  0  0  0  0  0  0
   -2.0096   -0.8825    1.5738 H   0  0  0  0  0  0  0  0  0  0  0  0
   -2.7699    0.7163    1.5713 H   0  0  0  0  0  0  0  0  0  0  0  0
   -4.0039   -0.8896    0.1392 H   0  0  0  0  0  0  0  0  0  0  0  0
  1  2  1  0
  1  3  1  0
  3  4  1  0
  3  5  1  0
  3 23  1  0
  5  6  1  0
  5 21  1  0
  5 22  1  0
  6  7  2  0
  6 14  1  0
  7  8  1  0
  7 20  1  0
  8  9  1  0
  8 19  1  0
  9 10  1  0
  9 14  2  0
 10 11  2  0
 10 18  1  0
 11 12  1  0
 11 17  1  0
 12 13  2  0
 12 16  1  0
 13 14  1  0
 13 15  1  0
M  END
$$$$

     RDKit          3D

 23 24  0  0  0  0  0  0  0  0999 V2000
   -3.7921   -0.3243    0.2557 O   0  0  0  0  0  0  0  0  0  0  0  0
   -4.1052   -0.2946   -0.6556 H   0  0  0  0  0  0  0  0  0  0  0  0
   -3.0648    0.8534    0.5127 C   0  0  0  0  0  0  0  0  0  0  0  0
   -3.7373    1.7247    0.4852 H   0  0  0  0  0  0  0  0  0  0  0  0
   -1.9049    1.0792   -0.4653 C   0  0  0  0  0  0  0  0  0  0  0  0
   -0.8121    0.0722   -0.2973 C   0  0  0  0  0  0  0  0  0  0  0  0
   -0.9429   -1.2851   -0.2471 C   0  0  0  0  0  0  0  0  0  0  0  0
    0.2810   -1.8705   -0.0645 N   0  0  0  0  0  0  0  0  0  0  0  0
    1.2336   -0.8974    0.0069 C   0  0  0  0  0  0  0  0  0  0  0  0
    2.6082   -0.9903    0.1835 C   0  0  0  0  0  0  0  0  0  0  0  0
    3.3284    0.1839    0.2164 C   0  0  0  0  0  0  0  0  0  0  0  0
    2.6994    1.4242    0.0764 C   0  0  0  0  0  0  0  0  0  0  0  0
    1.3380    1.5224   -0.1001 C   0  0  0  0  0  0  0  0  0  0  0  0
    0.5806    0.3516   -0.1368 C   0  0  0  0  0  0  0  0  0  0  0  0
    0.8657    2.4880   -0.2081 H   0  0  0  0  0  0  0  0  0  0  0  0
    3.3011    2.3209    0.1083 H   0  0  0  0  0  0  0  0  0  0  0  0
    4.3993    0.1493    0.3531 H   0  0  0  0  0  0  0  0  0  0  0  0
    3.0922   -1.9502    0.2918 H   0  0  0  0  0  0  0  0  0  0  0  0
    0.4462   -2.8588    0.0179 H   0  0  0  0  0  0  0  0  0  0  0  0
   -1.8325   -1.8809   -0.3097 H   0  0  0  0  0  0  0  0  0  0  0  0
   -1.5004    2.0780   -0.2976 H   0  0  0  0  0  0  0  0  0  0  0  0
   -2.2965    1.0453   -1.4890 H   0  0  0  0  0  0  0  0  0  0  0  0
   -2.6809    0.7430    1.5291 H   0  0  0  0  0  0  0  0  0  0  0  0
  1  2  1  0
  1  3  1  0
  3  4  1  0
  3  5  1  0
  3 23  1  0
  5  6  1  0
  5 21  1  0
  5 22  1  0
  6  7  2  0
  6 14  1  0
  7  8  1  0
  7 20  1  0
  8  9  1  0
  8 19  1  0
  9 10  1  0
  9 14  2  0
 10 11  2  0
 10 18  1  0
 11 12  1  0
 11 17  1  0
 12 13  2  0
 12 16  1  0
 13 14  1  0
 13 15  1  0
M  END
$$$$

     RDKit          3D

 23 24  0  0  0  0  0  0  0  0999 V2000
    4.3997    0.6707   -0.0095 O   0  0  0  0  0  0  0  0  0  0  0  0
    4.3399    1.3265    0.6944 H   0  0  0  0  0  0  0  0  0  0  0  0
    3.2579   -0.1523    0.0435 C   0  0  0  0  0  0  0  0  0  0  0  0
    3.3531   -0.8320   -0.8059 H   0  0  0  0  0  0  0  0  0  0  0  0
    1.9581    0.6447   -0.0595 C   0  0  0  0  0  0  0  0  0  0  0  0
    0.7338   -0.2118   -0.0337 C   0  0  0  0  0  0  0  0  0  0  0  0
    0.6389   -1.5717   -0.0226 C   0  0  0  0  0  0  0  0  0  0  0  0
   -0.6779   -1.9544    0.0016 N   0  0  0  0  0  0  0  0  0  0  0  0
   -1.4645   -0.8408    0.0055 C   0  0  0  0  0  0  0  0  0  0  0  0
   -2.8472   -0.7080    0.0271 C   0  0  0  0  0  0  0  0  0  0  0  0
   -3.3653    0.5688    0.0258 C   0  0  0  0  0  0  0  0  0  0  0  0
   -2.5321    1.6909    0.0030 C   0  0  0  0  0  0  0  0  0  0  0  0
   -1.1616    1.5657   -0.0183 C   0  0  0  0  0  0  0  0  0  0  0  0
   -0.6077    0.2857   -0.0165 C   0  0  0  0  0  0  0  0  0  0  0  0
   -0.5254    2.4382   -0.0372 H   0  0  0  0  0  0  0  0  0  0  0  0
   -2.9805    2.6737    0.0018 H   0  0  0  0  0  0  0  0  0  0  0  0
   -4.4361    0.7092    0.0420 H   0  0  0  0  0  0  0  0  0  0  0  0
   -3.4904   -1.5759    0.0439 H   0  0  0  0  0  0  0  0  0  0  0  0
   -1.0065   -2.9044    0.0109 H   0  0  0  0  0  0  0  0  0  0  0  0
    1.4148   -2.3123   -0.0301 H   0  0  0  0  0  0  0  0  0  0  0  0
    1.9757    1.2282   -0.9857 H   0  0  0  0  0  0  0  0  0  0  0  0
    1.9083    1.3588    0.7713 H   0  0  0  0  0  0  0  0  0  0  0  0
    3.2561   -0.7463    0.9697 H   0  0  0  0  0  0  0  0  0  0  0  0
  1  2  1  0
  1  3  1  0
  3  4  1  0
  3  5  1  0
  3 23  1  0
  5  6  1  0
  5 21  1  0
  5 22  1  0
  6  7  2  0
  6 14  1  0
  7  8  1  0
  7 20  1  0
  8  9  1  0
  8 19  1  0
  9 10  1  0
  9 14  2  0
 10 11  2  0
 10 18  1  0
 11 12  1  0
 11 17  1  0
 12 13  2  0
 12 16  1  0
 13 14  1  0
 13 15  1  0
M  END
$$$$

     RDKit          3D

 23 24  0  0  0  0  0  0  0  0999 V2000
   -4.0495   -0.8392    0.2269 O   0  0  0  0  0  0  0  0  0  0  0  0
   -4.4689   -1.2364    0.9964 H   0  0  0  0  0  0  0  0  0  0  0  0
   -2.7583   -0.3918    0.5828 C   0  0  0  0  0  0  0  0  0  0  0  0
   -2.8168    0.3632    1.3810 H   0  0  0  0  0  0  0  0  0  0  0  0
   -2.1012    0.2246   -0.6547 C   0  0  0  0  0  0  0  0  0  0  0  0
   -0.7207    0.6993   -0.3506 C   0  0  0  0  0  0  0  0  0  0  0  0
   -0.3203    1.9819   -0.1179 C   0  0  0  0  0  0  0  0  0  0  0  0
    1.0214    2.0186    0.1570 N   0  0  0  0  0  0  0  0  0  0  0  0
    1.5177    0.7487    0.1084 C   0  0  0  0  0  0  0  0  0  0  0  0
    2.8071    0.2735    0.3122 C   0  0  0  0  0  0  0  0  0  0  0  0
    3.0129   -1.0838    0.1933 C   0  0  0  0  0  0  0  0  0  0  0  0
    1.9643   -1.9521   -0.1241 C   0  0  0  0  0  0  0  0  0  0  0  0
    0.6849   -1.4872   -0.3274 C   0  0  0  0  0  0  0  0  0  0  0  0
    0.4440   -0.1184   -0.2091 C   0  0  0  0  0  0  0  0  0  0  0  0
   -0.1177   -2.1651   -0.5769 H   0  0  0  0  0  0  0  0  0  0  0  0
    2.1707   -3.0089   -0.2110 H   0  0  0  0  0  0  0  0  0  0  0  0
    4.0029   -1.4880    0.3452 H   0  0  0  0  0  0  0  0  0  0  0  0
    3.6175    0.9460    0.5540 H   0  0  0  0  0  0  0  0  0  0  0  0
    1.5547    2.8485    0.3508 H   0  0  0  0  0  0  0  0  0  0  0  0
   -0.8995    2.8856   -0.1348 H   0  0  0  0  0  0  0  0  0  0  0  0
   -2.7206    1.0541   -0.9984 H   0  0  0  0  0  0  0  0  0  0  0  0
   -2.0782   -0.5325   -1.4406 H   0  0  0  0  0  0  0  0  0  0  0  0
   -2.1445   -1.2276    0.9476 H   0  0  0  0  0  0  0  0  0  0  0  0
  1  2  1  0
  1  3  1  0
  3  4  1  0
  3  5  1  0
  3 23  1  0
  5  6  1  0
  5 21  1  0
  5 22  1  0
  6  7  2  0
  6 14  1  0
  7  8  1  0
  7 20  1  0
  8  9  1  0
  8 19  1  0
  9 10  1  0
  9 14  2  0
 10 11  2  0
 10 18  1  0
 11 12  1  0
 11 17  1  0
 12 13  2  0
 12 16  1  0
 13 14  1  0
 13 15  1  0
M  END
$$$$

     RDKit          3D

 23 24  0  0  0  0  0  0  0  0999 V2000
   -3.3180   -0.0428   -1.0202 O   0  0  0  0  0  0  0  0  0  0  0  0
   -3.6700   -0.4025   -1.8401 H   0  0  0  0  0  0  0  0  0  0  0  0
   -2.7449   -1.0889   -0.2648 C   0  0  0  0  0  0  0  0  0  0  0  0
   -3.5245   -1.7992    0.0515 H   0  0  0  0  0  0  0  0  0  0  0  0
   -2.0697   -0.4832    0.9696 C   0  0  0  0  0  0  0  0  0  0  0  0
   -0.8620    0.3049    0.5863 C   0  0  0  0  0  0  0  0  0  0  0  0
   -0.7859    1.6512    0.3891 C   0  0  0  0  0  0  0  0  0  0  0  0
    0.4794    2.0024   -0.0004 N   0  0  0  0  0  0  0  0  0  0  0  0
    1.2496    0.8789   -0.0697 C   0  0  0  0  0  0  0  0  0  0  0  0
    2.5852    0.7176   -0.4152 C   0  0  0  0  0  0  0  0  0  0  0  0
    3.1005   -0.5605   -0.3949 C   0  0  0  0  0  0  0  0  0  0  0  0
    2.3096   -1.6561   -0.0375 C   0  0  0  0  0  0  0  0  0  0  0  0
    0.9857   -1.5028    0.3070 C   0  0  0  0  0  0  0  0  0  0  0  0
    0.4343   -0.2215    0.2937 C   0  0  0  0  0  0  0  0  0  0  0  0
    0.3834   -2.3562    0.5830 H   0  0  0  0  0  0  0  0  0  0  0  0
    2.7539   -2.6410   -0.0338 H   0  0  0  0  0  0  0  0  0  0  0  0
    4.1354   -0.7225   -0.6588 H   0  0  0  0  0  0  0  0  0  0  0  0
    3.1963    1.5653   -0.6901 H   0  0  0  0  0  0  0  0  0  0  0  0
    0.7865    2.9366   -0.2097 H   0  0  0  0  0  0  0  0  0  0  0  0
   -1.5543    2.3918    0.4976 H   0  0  0  0  0  0  0  0  0  0  0  0
   -1.7904   -1.2928    1.6461 H   0  0  0  0  0  0  0  0  0  0  0  0
   -2.7913    0.1654    1.4673 H   0  0  0  0  0  0  0  0  0  0  0  0
   -1.9986   -1.6320   -0.8611 H   0  0  0  0  0  0  0  0  0  0  0  0
  1  2  1  0
  1  3  1  0
  3  4  1  0
  3  5  1  0
  3 23  1  0
  5  6  1  0
  5 21  1  0
  5 22  1  0
  6  7  2  0
  6 14  1  0
  7  8  1  0
  7 20  1  0
  8  9  1  0
  8 19  1  0
  9 10  1  0
  9 14  2  0
 10 11  2  0
 10 18  1  0
 11 12  1  0
 11 17  1  0
 12 13  2  0
 12 16  1  0
 13 14  1  0
 13 15  1  0
M  END
$$$$

     RDKit          3D

 23 24  0  0  0  0  0  0  0  0999 V2000
    4.3334    0.7552   -0.0115 O   0  0  0  0  0  0  0  0  0  0  0  0
    5.1641    0.2698   -0.0303 H   0  0  0  0  0  0  0  0  0  0  0  0
    3.2591   -0.1618   -0.0093 C   0  0  0  0  0  0  0  0  0  0  0  0
    3.2904   -0.7917   -0.9103 H   0  0  0  0  0  0  0  0  0  0  0  0
    1.9601    0.6348    0.0179 C   0  0  0  0  0  0  0  0  0  0  0  0
    0.7358   -0.2194    0.0103 C   0  0  0  0  0  0  0  0  0  0  0  0
    0.6347   -1.5789    0.0075 C   0  0  0  0  0  0  0  0  0  0  0  0
   -0.6846   -1.9573    0.0003 N   0  0  0  0  0  0  0  0  0  0  0  0
   -1.4663   -0.8402   -0.0014 C   0  0  0  0  0  0  0  0  0  0  0  0
   -2.8486   -0.7017   -0.0082 C   0  0  0  0  0  0  0  0  0  0  0  0
   -3.3610    0.5774   -0.0084 C   0  0  0  0  0  0  0  0  0  0  0  0
   -2.5225    1.6960   -0.0019 C   0  0  0  0  0  0  0  0  0  0  0  0
   -1.1523    1.5650    0.0049 C   0  0  0  0  0  0  0  0  0  0  0  0
   -0.6044    0.2825    0.0050 C   0  0  0  0  0  0  0  0  0  0  0  0
   -0.5107    2.4333    0.0098 H   0  0  0  0  0  0  0  0  0  0  0  0
   -2.9668    2.6806   -0.0023 H   0  0  0  0  0  0  0  0  0  0  0  0
   -4.4313    0.7224   -0.0136 H   0  0  0  0  0  0  0  0  0  0  0  0
   -3.4958   -1.5669   -0.0130 H   0  0  0  0  0  0  0  0  0  0  0  0
   -1.0172   -2.9059   -0.0034 H   0  0  0  0  0  0  0  0  0  0  0  0
    1.4062   -2.3245    0.0098 H   0  0  0  0  0  0  0  0  0  0  0  0
    1.9483    1.3028   -0.8477 H   0  0  0  0  0  0  0  0  0  0  0  0
    1.9628    1.2681    0.9095 H   0  0  0  0  0  0  0  0  0  0  0  0
    3.3145   -0.8151    0.8736 H   0  0  0  0  0  0  0  0  0  0  0  0
  1  2  1  0
  1  3  1  0
  3  4  1  0
  3  5  1  0
  3 23  1  0
  5  6  1  0
  5 21  1  0
  5 22  1  0
  6  7  2  0
  6 14  1  0
  7  8  1  0
  7 20  1  0
  8  9  1  0
  8 19  1  0
  9 10  1  0
  9 14  2  0
 10 11  2  0
 10 18  1  0
 11 12  1  0
 11 17  1  0
 12 13  2  0
 12 16  1  0
 13 14  1  0
 13 15  1  0
M  END
$$$$

     RDKit          3D

 23 24  0  0  0  0  0  0  0  0999 V2000
   -2.5441   -1.5690    0.5449 O   0  0  0  0  0  0  0  0  0  0  0  0
   -2.9066   -1.9535    1.3485 H   0  0  0  0  0  0  0  0  0  0  0  0
   -2.9956   -0.2393    0.4167 C   0  0  0  0  0  0  0  0  0  0  0  0
   -4.0769   -0.2299    0.2068 H   0  0  0  0  0  0  0  0  0  0  0  0
   -2.2482    0.4333   -0.7411 C   0  0  0  0  0  0  0  0  0  0  0  0
   -0.8583    0.8289   -0.3652 C   0  0  0  0  0  0  0  0  0  0  0  0
   -0.4305    2.0812   -0.0355 C   0  0  0  0  0  0  0  0  0  0  0  0
    0.9056    2.0627    0.2687 N   0  0  0  0  0  0  0  0  0  0  0  0
    1.3689    0.7850    0.1409 C   0  0  0  0  0  0  0  0  0  0  0  0
    2.6409    0.2619    0.3360 C   0  0  0  0  0  0  0  0  0  0  0  0
    2.8117   -1.0898    0.1296 C   0  0  0  0  0  0  0  0  0  0  0  0
    1.7450   -1.9058   -0.2589 C   0  0  0  0  0  0  0  0  0  0  0  0
    0.4825   -1.3939   -0.4547 C   0  0  0  0  0  0  0  0  0  0  0  0
    0.2804   -0.0288   -0.2555 C   0  0  0  0  0  0  0  0  0  0  0  0
   -0.3431   -2.0272   -0.7378 H   0  0  0  0  0  0  0  0  0  0  0  0
    1.9240   -2.9612   -0.4059 H   0  0  0  0  0  0  0  0  0  0  0  0
    3.7878   -1.5307    0.2721 H   0  0  0  0  0  0  0  0  0  0  0  0
    3.4639    0.8937    0.6386 H   0  0  0  0  0  0  0  0  0  0  0  0
    1.4560    2.8622    0.5304 H   0  0  0  0  0  0  0  0  0  0  0  0
   -0.9854    3.0002   -0.0010 H   0  0  0  0  0  0  0  0  0  0  0  0
   -2.8072    1.3199   -1.0459 H   0  0  0  0  0  0  0  0  0  0  0  0
   -2.2220   -0.2730   -1.5724 H   0  0  0  0  0  0  0  0  0  0  0  0
   -2.8188    0.3240    1.3438 H   0  0  0  0  0  0  0  0  0  0  0  0
  1  2  1  0
  1  3  1  0
  3  4  1  0
  3  5  1  0
  3 23  1  0
  5  6  1  0
  5 21  1  0
  5 22  1  0
  6  7  2  0
  6 14  1  0
  7  8  1  0
  7 20  1  0
  8  9  1  0
  8 19  1  0
  9 10  1  0
  9 14  2  0
 10 11  2  0
 10 18  1  0
 11 12  1  0
 11 17  1  0
 12 13  2  0
 12 16  1  0
 13 14  1  0
 13 15  1  0
M  END
$$$$
