
     RDKit          3D

 48 51  0  0  0  0  0  0  0  0999 V2000
    4.2836    2.8903    0.3358 C   0  0  0  0  0  0  0  0  0  0  0  0
    4.6213    1.5613    0.0356 O   0  0  0  0  0  0  0  0  0  0  0  0
    3.6122    0.6180    0.0275 C   0  0  0  0  0  0  0  0  0  0  0  0
    2.2786    0.8629    0.2848 C   0  0  0  0  0  0  0  0  0  0  0  0
    1.3261   -0.1560    0.2484 C   0  0  0  0  0  0  0  0  0  0  0  0
    1.7496   -1.4537   -0.0216 C   0  0  0  0  0  0  0  0  0  0  0  0
    3.0939   -1.6998   -0.2832 C   0  0  0  0  0  0  0  0  0  0  0  0
    4.0305   -0.6869   -0.2705 C   0  0  0  0  0  0  0  0  0  0  0  0
    5.3387   -0.9542   -0.5320 O   0  0  0  0  0  0  0  0  0  0  0  0
    5.8257   -0.1219   -0.4637 H   0  0  0  0  0  0  0  0  0  0  0  0
    3.4294   -2.7020   -0.5003 H   0  0  0  0  0  0  0  0  0  0  0  0
    0.8057   -2.6255   -0.0590 C   0  0  0  0  0  0  0  0  0  0  0  0
   -0.5407   -2.3075    0.5771 C   0  0  0  0  0  0  0  0  0  0  0  0
   -1.0374   -0.9743    0.0289 C   0  0  1  0  0  0  0  0  0  0  0  0
   -2.4674   -0.6513    0.4389 C   0  0  2  0  0  0  0  0  0  0  0  0
   -3.5863   -1.6401    0.1074 C   0  0  0  0  0  0  0  0  0  0  0  0
   -3.6026   -2.4813    0.7986 H   0  0  0  0  0  0  0  0  0  0  0  0
   -3.4606   -2.0378   -0.9000 H   0  0  0  0  0  0  0  0  0  0  0  0
   -4.8670   -0.7917    0.2209 C   0  0  0  0  0  0  0  0  0  0  0  0
   -5.4664   -1.0845    1.0812 H   0  0  0  0  0  0  0  0  0  0  0  0
   -5.4979   -0.8996   -0.6633 H   0  0  0  0  0  0  0  0  0  0  0  0
   -4.4132    0.6847    0.3549 C   0  0  2  0  0  0  0  0  0  0  0  0
   -5.2796    1.6018   -0.2538 O   0  0  0  0  0  0  0  0  0  0  0  0
   -5.3444    1.3844   -1.1909 H   0  0  0  0  0  0  0  0  0  0  0  0
   -2.9575    0.6701   -0.1727 C   0  0  1  0  0  0  0  0  0  0  0  0
   -2.0650    1.7937    0.3471 C   0  0  0  0  0  0  0  0  0  0  0  0
   -2.3590    2.7489   -0.0924 H   0  0  0  0  0  0  0  0  0  0  0  0
   -0.5897    1.5174    0.0374 C   0  0  0  0  0  0  0  0  0  0  0  0
   -0.0068    2.3099    0.5076 H   0  0  0  0  0  0  0  0  0  0  0  0
   -0.4105    1.5729   -1.0373 H   0  0  0  0  0  0  0  0  0  0  0  0
   -0.1269    0.1473    0.5576 C   0  0  2  0  0  0  0  0  0  0  0  0
   -0.2309    0.1631    1.6526 H   0  0  0  0  0  0  0  0  0  0  0  0
   -2.1908    1.8761    1.4297 H   0  0  0  0  0  0  0  0  0  0  0  0
   -2.9799    0.6820   -1.7046 C   0  0  0  0  0  0  0  0  0  0  0  0
   -1.9929    0.5072   -2.1195 H   0  0  0  0  0  0  0  0  0  0  0  0
   -3.6485   -0.0782   -2.1002 H   0  0  0  0  0  0  0  0  0  0  0  0
   -3.3136    1.6587   -2.0531 H   0  0  0  0  0  0  0  0  0  0  0  0
   -4.4077    0.9797    1.4092 H   0  0  0  0  0  0  0  0  0  0  0  0
   -2.4712   -0.5168    1.5281 H   0  0  0  0  0  0  0  0  0  0  0  0
   -0.9641   -1.0146   -1.0614 H   0  0  0  0  0  0  0  0  0  0  0  0
   -1.2514   -3.1038    0.3515 H   0  0  0  0  0  0  0  0  0  0  0  0
   -0.4381   -2.2434    1.6623 H   0  0  0  0  0  0  0  0  0  0  0  0
    1.2707   -3.4780    0.4410 H   0  0  0  0  0  0  0  0  0  0  0  0
    0.6511   -2.9119   -1.1048 H   0  0  0  0  0  0  0  0  0  0  0  0
    1.9683    1.8653    0.5257 H   0  0  0  0  0  0  0  0  0  0  0  0
    3.8616    2.9792    1.3421 H   0  0  0  0  0  0  0  0  0  0  0  0
    5.2161    3.4508    0.2860 H   0  0  0  0  0  0  0  0  0  0  0  0
    3.5764    3.2989   -0.3933 H   0  0  0  0  0  0  0  0  0  0  0  0
  1  2  1  0
  1 46  1  0
  1 47  1  0
  1 48  1  0
  2  3  1  0
  3  4  2  0
  3  8  1  0
  4  5  1  0
  4 45  1  0
  5  6  2  0
  5 31  1  0
  6  7  1  0
  6 12  1  0
  7  8  2  0
  7 11  1  0
  8  9  1  0
  9 10  1  0
 12 13  1  0
 12 43  1  0
 12 44  1  0
 13 14  1  0
 13 41  1  0
 13 42  1  0
 14 15  1  0
 14 31  1  0
 14 40  1  6
 15 16  1  0
 15 25  1  0
 15 39  1  1
 16 17  1  0
 16 18  1  0
 16 19  1  0
 19 20  1  0
 19 21  1  0
 19 22  1  0
 22 23  1  0
 22 25  1  0
 22 38  1  1
 23 24  1  0
 25 26  1  0
 25 34  1  6
 26 27  1  0
 26 28  1  0
 26 33  1  0
 28 29  1  0
 28 30  1  0
 28 31  1  0
 31 32  1  1
 34 35  1  0
 34 36  1  0
 34 37  1  0
M  END
$$$$

     RDKit          3D

 48 51  0  0  0  0  0  0  0  0999 V2000
    4.0602    2.9813   -0.2278 C   0  0  0  0  0  0  0  0  0  0  0  0
    4.4534    1.6383   -0.3360 O   0  0  0  0  0  0  0  0  0  0  0  0
    3.5071    0.6602   -0.0929 C   0  0  0  0  0  0  0  0  0  0  0  0
    2.1822    0.8894    0.2340 C   0  0  0  0  0  0  0  0  0  0  0  0
    1.3212   -0.1764    0.4646 C   0  0  0  0  0  0  0  0  0  0  0  0
    1.8016   -1.4792    0.3623 C   0  0  0  0  0  0  0  0  0  0  0  0
    3.1250   -1.7118    0.0254 C   0  0  0  0  0  0  0  0  0  0  0  0
    3.9857   -0.6533   -0.2036 C   0  0  0  0  0  0  0  0  0  0  0  0
    5.2858   -0.8885   -0.5313 O   0  0  0  0  0  0  0  0  0  0  0  0
    5.7181   -0.0313   -0.6440 H   0  0  0  0  0  0  0  0  0  0  0  0
    3.5093   -2.7159   -0.0605 H   0  0  0  0  0  0  0  0  0  0  0  0
    0.8367   -2.5866    0.6445 C   0  0  0  0  0  0  0  0  0  0  0  0
   -0.4718   -2.3926   -0.1357 C   0  0  0  0  0  0  0  0  0  0  0  0
   -0.9258   -0.9217   -0.2113 C   0  0  1  0  0  0  0  0  0  0  0  0
   -2.4122   -0.7795    0.0946 C   0  0  2  0  0  0  0  0  0  0  0  0
   -3.4214   -1.5533   -0.7558 C   0  0  0  0  0  0  0  0  0  0  0  0
   -3.4581   -2.6091   -0.4926 H   0  0  0  0  0  0  0  0  0  0  0  0
   -3.1591   -1.4856   -1.8117 H   0  0  0  0  0  0  0  0  0  0  0  0
   -4.7589   -0.8490   -0.4605 C   0  0  0  0  0  0  0  0  0  0  0  0
   -5.4178   -1.4769    0.1368 H   0  0  0  0  0  0  0  0  0  0  0  0
   -5.2941   -0.6028   -1.3792 H   0  0  0  0  0  0  0  0  0  0  0  0
   -4.4146    0.4548    0.3056 C   0  0  2  0  0  0  0  0  0  0  0  0
   -5.2602    1.5306    0.0059 O   0  0  0  0  0  0  0  0  0  0  0  0
   -5.1921    1.7192   -0.9372 H   0  0  0  0  0  0  0  0  0  0  0  0
   -2.9110    0.6708    0.0063 C   0  0  1  0  0  0  0  0  0  0  0  0
   -2.1566    1.4995    1.0430 C   0  0  0  0  0  0  0  0  0  0  0  0
   -2.4755    2.5430    1.0045 H   0  0  0  0  0  0  0  0  0  0  0  0
   -0.6482    1.4078    0.8001 C   0  0  0  0  0  0  0  0  0  0  0  0
   -0.1324    1.9558    1.5919 H   0  0  0  0  0  0  0  0  0  0  0  0
   -0.4069    1.8865   -0.1496 H   0  0  0  0  0  0  0  0  0  0  0  0
   -0.1436   -0.0377    0.7903 C   0  0  2  0  0  0  0  0  0  0  0  0
   -0.3125   -0.4555    1.7919 H   0  0  0  0  0  0  0  0  0  0  0  0
   -2.3861    1.1205    2.0419 H   0  0  0  0  0  0  0  0  0  0  0  0
   -2.7642    1.2967   -1.3850 C   0  0  0  0  0  0  0  0  0  0  0  0
   -3.0546    2.3458   -1.3440 H   0  0  0  0  0  0  0  0  0  0  0  0
   -1.7393    1.2508   -1.7377 H   0  0  0  0  0  0  0  0  0  0  0  0
   -3.3883    0.7900   -2.1169 H   0  0  0  0  0  0  0  0  0  0  0  0
   -4.5468    0.3021    1.3815 H   0  0  0  0  0  0  0  0  0  0  0  0
   -2.5559   -1.0963    1.1359 H   0  0  0  0  0  0  0  0  0  0  0  0
   -0.7170   -0.5485   -1.2175 H   0  0  0  0  0  0  0  0  0  0  0  0
   -0.3387   -2.7764   -1.1479 H   0  0  0  0  0  0  0  0  0  0  0  0
   -1.2467   -2.9945    0.3413 H   0  0  0  0  0  0  0  0  0  0  0  0
    0.6141   -2.5871    1.7162 H   0  0  0  0  0  0  0  0  0  0  0  0
    1.2756   -3.5540    0.3991 H   0  0  0  0  0  0  0  0  0  0  0  0
    1.8213    1.9005    0.3165 H   0  0  0  0  0  0  0  0  0  0  0  0
    4.9514    3.5686   -0.4450 H   0  0  0  0  0  0  0  0  0  0  0  0
    3.2781    3.2303   -0.9524 H   0  0  0  0  0  0  0  0  0  0  0  0
    3.7091    3.2164    0.7821 H   0  0  0  0  0  0  0  0  0  0  0  0
  1  2  1  0
  1 46  1  0
  1 47  1  0
  1 48  1  0
  2  3  1  0
  3  4  2  0
  3  8  1  0
  4  5  1  0
  4 45  1  0
  5  6  2  0
  5 31  1  0
  6  7  1  0
  6 12  1  0
  7  8  2  0
  7 11  1  0
  8  9  1  0
  9 10  1  0
 12 13  1  0
 12 43  1  0
 12 44  1  0
 13 14  1  0
 13 41  1  0
 13 42  1  0
 14 15  1  0
 14 31  1  0
 14 40  1  6
 15 16  1  0
 15 25  1  0
 15 39  1  1
 16 17  1  0
 16 18  1  0
 16 19  1  0
 19 20  1  0
 19 21  1  0
 19 22  1  0
 22 23  1  0
 22 25  1  0
 22 38  1  1
 23 24  1  0
 25 26  1  0
 25 34  1  6
 26 27  1  0
 26 28  1  0
 26 33  1  0
 28 29  1  0
 28 30  1  0
 28 31  1  0
 31 32  1  1
 34 35  1  0
 34 36  1  0
 34 37  1  0
M  END
$$$$

     RDKit          3D

 48 51  0  0  0  0  0  0  0  0999 V2000
   -5.6945   -1.8221   -0.0068 C   0  0  0  0  0  0  0  0  0  0  0  0
   -4.3016   -1.8729    0.2003 O   0  0  0  0  0  0  0  0  0  0  0  0
   -3.5482   -0.7398    0.0948 C   0  0  0  0  0  0  0  0  0  0  0  0
   -2.1925   -0.9295    0.3448 C   0  0  0  0  0  0  0  0  0  0  0  0
   -1.2513    0.0870    0.2855 C   0  0  0  0  0  0  0  0  0  0  0  0
   -1.6988    1.3721   -0.0166 C   0  0  0  0  0  0  0  0  0  0  0  0
   -3.0486    1.5697   -0.2684 C   0  0  0  0  0  0  0  0  0  0  0  0
   -3.9861    0.5498   -0.2270 C   0  0  0  0  0  0  0  0  0  0  0  0
   -5.3073    0.8223   -0.4925 O   0  0  0  0  0  0  0  0  0  0  0  0
   -5.3935    1.7638   -0.6829 H   0  0  0  0  0  0  0  0  0  0  0  0
   -3.3921    2.5694   -0.5087 H   0  0  0  0  0  0  0  0  0  0  0  0
   -0.7775    2.5588   -0.1041 C   0  0  0  0  0  0  0  0  0  0  0  0
    0.5852    2.2799    0.5162 C   0  0  0  0  0  0  0  0  0  0  0  0
    1.0926    0.9340    0.0088 C   0  0  1  0  0  0  0  0  0  0  0  0
    2.5331    0.6485    0.4093 C   0  0  2  0  0  0  0  0  0  0  0  0
    3.6321    1.6364    0.0138 C   0  0  0  0  0  0  0  0  0  0  0  0
    3.6483    2.5085    0.6656 H   0  0  0  0  0  0  0  0  0  0  0  0
    3.4836    1.9859   -1.0084 H   0  0  0  0  0  0  0  0  0  0  0  0
    4.9267    0.8119    0.1427 C   0  0  0  0  0  0  0  0  0  0  0  0
    5.5374    1.1528    0.9769 H   0  0  0  0  0  0  0  0  0  0  0  0
    5.5398    0.8864   -0.7573 H   0  0  0  0  0  0  0  0  0  0  0  0
    4.4964   -0.6627    0.3539 C   0  0  2  0  0  0  0  0  0  0  0  0
    5.3665   -1.5950   -0.2255 O   0  0  0  0  0  0  0  0  0  0  0  0
    5.4037   -1.4286   -1.1746 H   0  0  0  0  0  0  0  0  0  0  0  0
    3.0321   -0.6934   -0.1484 C   0  0  1  0  0  0  0  0  0  0  0  0
    2.1650   -1.8045    0.4378 C   0  0  0  0  0  0  0  0  0  0  0  0
    2.4687   -2.7750    0.0409 H   0  0  0  0  0  0  0  0  0  0  0  0
    0.6819   -1.5658    0.1353 C   0  0  0  0  0  0  0  0  0  0  0  0
    0.1119   -2.3381    0.6513 H   0  0  0  0  0  0  0  0  0  0  0  0
    0.4894   -1.6766   -0.9325 H   0  0  0  0  0  0  0  0  0  0  0  0
    0.2070   -0.1795    0.5948 C   0  0  2  0  0  0  0  0  0  0  0  0
    0.3188   -0.1428    1.6882 H   0  0  0  0  0  0  0  0  0  0  0  0
    2.3068   -1.8323    1.5211 H   0  0  0  0  0  0  0  0  0  0  0  0
    3.0290   -0.7757   -1.6783 C   0  0  0  0  0  0  0  0  0  0  0  0
    3.3682   -1.7636   -1.9874 H   0  0  0  0  0  0  0  0  0  0  0  0
    2.0327   -0.6322   -2.0829 H   0  0  0  0  0  0  0  0  0  0  0  0
    3.6813   -0.0270   -2.1206 H   0  0  0  0  0  0  0  0  0  0  0  0
    4.5128   -0.9073    1.4209 H   0  0  0  0  0  0  0  0  0  0  0  0
    2.5558    0.5646    1.5033 H   0  0  0  0  0  0  0  0  0  0  0  0
    1.0026    0.9320   -1.0811 H   0  0  0  0  0  0  0  0  0  0  0  0
    1.2798    3.0777    0.2491 H   0  0  0  0  0  0  0  0  0  0  0  0
    0.5033    2.2537    1.6048 H   0  0  0  0  0  0  0  0  0  0  0  0
   -1.2451    3.4199    0.3799 H   0  0  0  0  0  0  0  0  0  0  0  0
   -0.6446    2.8169   -1.1607 H   0  0  0  0  0  0  0  0  0  0  0  0
   -1.9065   -1.9366    0.5976 H   0  0  0  0  0  0  0  0  0  0  0  0
   -6.1856   -1.1608    0.7106 H   0  0  0  0  0  0  0  0  0  0  0  0
   -5.9409   -1.4974   -1.0201 H   0  0  0  0  0  0  0  0  0  0  0  0
   -6.0439   -2.8435    0.1426 H   0  0  0  0  0  0  0  0  0  0  0  0
  1  2  1  0
  1 46  1  0
  1 47  1  0
  1 48  1  0
  2  3  1  0
  3  4  2  0
  3  8  1  0
  4  5  1  0
  4 45  1  0
  5  6  2  0
  5 31  1  0
  6  7  1  0
  6 12  1  0
  7  8  2  0
  7 11  1  0
  8  9  1  0
  9 10  1  0
 12 13  1  0
 12 43  1  0
 12 44  1  0
 13 14  1  0
 13 41  1  0
 13 42  1  0
 14 15  1  0
 14 31  1  0
 14 40  1  6
 15 16  1  0
 15 25  1  0
 15 39  1  1
 16 17  1  0
 16 18  1  0
 16 19  1  0
 19 20  1  0
 19 21  1  0
 19 22  1  0
 22 23  1  0
 22 25  1  0
 22 38  1  1
 23 24  1  0
 25 26  1  0
 25 34  1  6
 26 27  1  0
 26 28  1  0
 26 33  1  0
 28 29  1  0
 28 30  1  0
 28 31  1  0
 31 32  1  1
 34 35  1  0
 34 36  1  0
 34 37  1  0
M  END
$$$$

     RDKit          3D

 48 51  0  0  0  0  0  0  0  0999 V2000
   -5.7043   -1.8129    0.0180 C   0  0  0  0  0  0  0  0  0  0  0  0
   -4.3101   -1.8679    0.2150 O   0  0  0  0  0  0  0  0  0  0  0  0
   -3.5536   -0.7376    0.0985 C   0  0  0  0  0  0  0  0  0  0  0  0
   -2.1975   -0.9297    0.3442 C   0  0  0  0  0  0  0  0  0  0  0  0
   -1.2536    0.0837    0.2747 C   0  0  0  0  0  0  0  0  0  0  0  0
   -1.6986    1.3686   -0.0314 C   0  0  0  0  0  0  0  0  0  0  0  0
   -3.0486    1.5683   -0.2797 C   0  0  0  0  0  0  0  0  0  0  0  0
   -3.9888    0.5512   -0.2297 C   0  0  0  0  0  0  0  0  0  0  0  0
   -5.3101    0.8258   -0.4922 O   0  0  0  0  0  0  0  0  0  0  0  0
   -5.3941    1.7662   -0.6889 H   0  0  0  0  0  0  0  0  0  0  0  0
   -3.3904    2.5677   -0.5238 H   0  0  0  0  0  0  0  0  0  0  0  0
   -0.7738    2.5520   -0.1236 C   0  0  0  0  0  0  0  0  0  0  0  0
    0.5822    2.2745    0.5117 C   0  0  0  0  0  0  0  0  0  0  0  0
    1.0951    0.9293    0.0087 C   0  0  1  0  0  0  0  0  0  0  0  0
    2.5304    0.6396    0.4244 C   0  0  2  0  0  0  0  0  0  0  0  0
    3.6358    1.6314    0.0581 C   0  0  0  0  0  0  0  0  0  0  0  0
    3.6493    2.4889    0.7294 H   0  0  0  0  0  0  0  0  0  0  0  0
    3.4977    2.0025   -0.9572 H   0  0  0  0  0  0  0  0  0  0  0  0
    4.9270    0.8003    0.1814 C   0  0  0  0  0  0  0  0  0  0  0  0
    5.5375    1.1268    1.0213 H   0  0  0  0  0  0  0  0  0  0  0  0
    5.5405    0.8609   -0.7161 H   0  0  0  0  0  0  0  0  0  0  0  0
    4.4933   -0.6680    0.3677 C   0  0  2  0  0  0  0  0  0  0  0  0
    5.3930   -1.5108   -0.3090 O   0  0  0  0  0  0  0  0  0  0  0  0
    5.0972   -2.4211   -0.2060 H   0  0  0  0  0  0  0  0  0  0  0  0
    3.0349   -0.6938   -0.1493 C   0  0  1  0  0  0  0  0  0  0  0  0
    2.1603   -1.8147    0.4102 C   0  0  0  0  0  0  0  0  0  0  0  0
    2.4527   -2.7815   -0.0085 H   0  0  0  0  0  0  0  0  0  0  0  0
    0.6789   -1.5663    0.1041 C   0  0  0  0  0  0  0  0  0  0  0  0
    0.1033   -2.3466    0.6020 H   0  0  0  0  0  0  0  0  0  0  0  0
    0.4951   -1.6578   -0.9670 H   0  0  0  0  0  0  0  0  0  0  0  0
    0.2044   -0.1863    0.5816 C   0  0  2  0  0  0  0  0  0  0  0  0
    0.3145   -0.1631    1.6758 H   0  0  0  0  0  0  0  0  0  0  0  0
    2.2935   -1.8669    1.4948 H   0  0  0  0  0  0  0  0  0  0  0  0
    3.0596   -0.7504   -1.6781 C   0  0  0  0  0  0  0  0  0  0  0  0
    2.0650   -0.6587   -2.1017 H   0  0  0  0  0  0  0  0  0  0  0  0
    3.6857    0.0353   -2.0869 H   0  0  0  0  0  0  0  0  0  0  0  0
    3.4761   -1.7037   -1.9980 H   0  0  0  0  0  0  0  0  0  0  0  0
    4.4910   -0.9227    1.4410 H   0  0  0  0  0  0  0  0  0  0  0  0
    2.5390    0.5387    1.5178 H   0  0  0  0  0  0  0  0  0  0  0  0
    1.0202    0.9278   -1.0821 H   0  0  0  0  0  0  0  0  0  0  0  0
    1.2798    3.0720    0.2519 H   0  0  0  0  0  0  0  0  0  0  0  0
    0.4881    2.2482    1.5994 H   0  0  0  0  0  0  0  0  0  0  0  0
   -1.2433    3.4191    0.3478 H   0  0  0  0  0  0  0  0  0  0  0  0
   -0.6302    2.7992   -1.1813 H   0  0  0  0  0  0  0  0  0  0  0  0
   -1.9137   -1.9361    0.6027 H   0  0  0  0  0  0  0  0  0  0  0  0
   -6.1873   -1.1452    0.7350 H   0  0  0  0  0  0  0  0  0  0  0  0
   -5.9572   -1.4938   -0.9954 H   0  0  0  0  0  0  0  0  0  0  0  0
   -6.0565   -2.8320    0.1766 H   0  0  0  0  0  0  0  0  0  0  0  0
  1  2  1  0
  1 46  1  0
  1 47  1  0
  1 48  1  0
  2  3  1  0
  3  4  2  0
  3  8  1  0
  4  5  1  0
  4 45  1  0
  5  6  2  0
  5 31  1  0
  6  7  1  0
  6 12  1  0
  7  8  2  0
  7 11  1  0
  8  9  1  0
  9 10  1  0
 12 13  1  0
 12 43  1  0
 12 44  1  0
 13 14  1  0
 13 41  1  0
 13 42  1  0
 14 15  1  0
 14 31  1  0
 14 40  1  6
 15 16  1  0
 15 25  1  0
 15 39  1  1
 16 17  1  0
 16 18  1  0
 16 19  1  0
 19 20  1  0
 19 21  1  0
 19 22  1  0
 22 23  1  0
 22 25  1  0
 22 38  1  1
 23 24  1  0
 25 26  1  0
 25 34  1  6
 26 27  1  0
 26 28  1  0
 26 33  1  0
 28 29  1  0
 28 30  1  0
 28 31  1  0
 31 32  1  1
 34 35  1  0
 34 36  1  0
 34 37  1  0
M  END
$$$$

     RDKit          3D

 48 51  0  0  0  0  0  0  0  0999 V2000
   -5.5123   -1.9218   -0.4904 C   0  0  0  0  0  0  0  0  0  0  0  0
   -4.1317   -1.9418   -0.2098 O   0  0  0  0  0  0  0  0  0  0  0  0
   -3.4428   -0.7751   -0.0400 C   0  0  0  0  0  0  0  0  0  0  0  0
   -2.0981   -0.9542    0.2862 C   0  0  0  0  0  0  0  0  0  0  0  0
   -1.2423    0.1082    0.5002 C   0  0  0  0  0  0  0  0  0  0  0  0
   -1.7417    1.4050    0.3828 C   0  0  0  0  0  0  0  0  0  0  0  0
   -3.0692    1.5948    0.0518 C   0  0  0  0  0  0  0  0  0  0  0  0
   -3.9346    0.5290   -0.1640 C   0  0  0  0  0  0  0  0  0  0  0  0
   -5.2475    0.7760   -0.4934 O   0  0  0  0  0  0  0  0  0  0  0  0
   -5.3810    1.7306   -0.5217 H   0  0  0  0  0  0  0  0  0  0  0  0
   -3.4578    2.6020   -0.0428 H   0  0  0  0  0  0  0  0  0  0  0  0
   -0.7948    2.5325    0.6424 C   0  0  0  0  0  0  0  0  0  0  0  0
    0.5159    2.3442   -0.1366 C   0  0  0  0  0  0  0  0  0  0  0  0
    0.9837    0.8769   -0.2044 C   0  0  1  0  0  0  0  0  0  0  0  0
    2.4755    0.7532    0.0814 C   0  0  2  0  0  0  0  0  0  0  0  0
    3.4637    1.5285   -0.7921 C   0  0  0  0  0  0  0  0  0  0  0  0
    3.4944    2.5872   -0.5394 H   0  0  0  0  0  0  0  0  0  0  0  0
    3.1853    1.4481   -1.8431 H   0  0  0  0  0  0  0  0  0  0  0  0
    4.8124    0.8399   -0.5120 C   0  0  0  0  0  0  0  0  0  0  0  0
    5.4759    1.4804    0.0666 H   0  0  0  0  0  0  0  0  0  0  0  0
    5.3338    0.5876   -1.4370 H   0  0  0  0  0  0  0  0  0  0  0  0
    4.4930   -0.4583    0.2745 C   0  0  2  0  0  0  0  0  0  0  0  0
    5.3459   -1.5280   -0.0253 O   0  0  0  0  0  0  0  0  0  0  0  0
    5.2558   -1.7368   -0.9624 H   0  0  0  0  0  0  0  0  0  0  0  0
    2.9873   -0.6931    0.0006 C   0  0  1  0  0  0  0  0  0  0  0  0
    2.2570   -1.5188    1.0571 C   0  0  0  0  0  0  0  0  0  0  0  0
    2.5864   -2.5590    1.0243 H   0  0  0  0  0  0  0  0  0  0  0  0
    0.7443   -1.4458    0.8353 C   0  0  0  0  0  0  0  0  0  0  0  0
    0.2431   -1.9883    1.6394 H   0  0  0  0  0  0  0  0  0  0  0  0
    0.4908   -1.9375   -0.1038 H   0  0  0  0  0  0  0  0  0  0  0  0
    0.2253   -0.0062    0.8158 C   0  0  2  0  0  0  0  0  0  0  0  0
    0.3974    0.4255    1.8107 H   0  0  0  0  0  0  0  0  0  0  0  0
    2.4978   -1.1270    2.0485 H   0  0  0  0  0  0  0  0  0  0  0  0
    2.8251   -1.3352   -1.3815 C   0  0  0  0  0  0  0  0  0  0  0  0
    1.7936   -1.3072   -1.7160 H   0  0  0  0  0  0  0  0  0  0  0  0
    3.4301   -0.8286   -2.1294 H   0  0  0  0  0  0  0  0  0  0  0  0
    3.1291   -2.3801   -1.3343 H   0  0  0  0  0  0  0  0  0  0  0  0
    4.6400   -0.2910    1.3464 H   0  0  0  0  0  0  0  0  0  0  0  0
    2.6313    1.0822    1.1171 H   0  0  0  0  0  0  0  0  0  0  0  0
    0.7645    0.4919   -1.2039 H   0  0  0  0  0  0  0  0  0  0  0  0
    0.3808    2.7210   -1.1514 H   0  0  0  0  0  0  0  0  0  0  0  0
    1.2851    2.9558    0.3374 H   0  0  0  0  0  0  0  0  0  0  0  0
   -0.5704    2.5546    1.7136 H   0  0  0  0  0  0  0  0  0  0  0  0
   -1.2468    3.4908    0.3819 H   0  0  0  0  0  0  0  0  0  0  0  0
   -1.7652   -1.9752    0.3693 H   0  0  0  0  0  0  0  0  0  0  0  0
   -5.8074   -2.9693   -0.5496 H   0  0  0  0  0  0  0  0  0  0  0  0
   -6.0783   -1.4287    0.3031 H   0  0  0  0  0  0  0  0  0  0  0  0
   -5.7252   -1.4293   -1.4416 H   0  0  0  0  0  0  0  0  0  0  0  0
  1  2  1  0
  1 46  1  0
  1 47  1  0
  1 48  1  0
  2  3  1  0
  3  4  2  0
  3  8  1  0
  4  5  1  0
  4 45  1  0
  5  6  2  0
  5 31  1  0
  6  7  1  0
  6 12  1  0
  7  8  2  0
  7 11  1  0
  8  9  1  0
  9 10  1  0
 12 13  1  0
 12 43  1  0
 12 44  1  0
 13 14  1  0
 13 41  1  0
 13 42  1  0
 14 15  1  0
 14 31  1  0
 14 40  1  6
 15 16  1  0
 15 25  1  0
 15 39  1  1
 16 17  1  0
 16 18  1  0
 16 19  1  0
 19 20  1  0
 19 21  1  0
 19 22  1  0
 22 23  1  0
 22 25  1  0
 22 38  1  1
 23 24  1  0
 25 26  1  0
 25 34  1  6
 26 27  1  0
 26 28  1  0
 26 33  1  0
 28 29  1  0
 28 30  1  0
 28 31  1  0
 31 32  1  1
 34 35  1  0
 34 36  1  0
 34 37  1  0
M  END
$$$$
