
     RDKit          3D

 33 36  0  0  0  0  0  0  0  0999 V2000
   -2.0951   -3.0476    0.9999 C   0  0  0  0  0  0  0  0  0  0  0  0
   -0.9958   -2.2498    1.2809 C   0  0  0  0  0  0  0  0  0  0  0  0
   -0.9017   -0.9871    0.9167 N   0  0  0  0  0  0  0  0  0  0  0  0
   -1.9097   -0.4443    0.2381 C   0  0  0  0  0  0  0  0  0  0  0  0
   -3.0659   -1.1576   -0.0851 C   0  0  0  0  0  0  0  0  0  0  0  0
   -3.1542   -2.4802    0.3055 C   0  0  0  0  0  0  0  0  0  0  0  0
   -4.0333   -3.0641    0.0715 H   0  0  0  0  0  0  0  0  0  0  0  0
   -3.8564   -0.6647   -0.6275 H   0  0  0  0  0  0  0  0  0  0  0  0
   -1.7552    0.9454   -0.1602 C   0  0  0  0  0  0  0  0  0  0  0  0
   -2.7745    1.6846   -0.5780 N   0  0  0  0  0  0  0  0  0  0  0  0
   -2.2815    2.8925   -0.8118 N   0  0  0  0  0  0  0  0  0  0  0  0
   -0.9584    2.9698   -0.5496 C   0  0  0  0  0  0  0  0  0  0  0  0
   -0.5614    1.7195   -0.1303 C   0  0  0  0  0  0  0  0  0  0  0  0
    0.7727    1.2852    0.2722 C   0  0  0  0  0  0  0  0  0  0  0  0
    1.4257    1.9129    1.3073 C   0  0  0  0  0  0  0  0  0  0  0  0
    2.6875    1.4455    1.7043 C   0  0  0  0  0  0  0  0  0  0  0  0
    3.2981    0.4351    1.1539 N   0  0  0  0  0  0  0  0  0  0  0  0
    2.6958   -0.1910    0.1216 C   0  0  0  0  0  0  0  0  0  0  0  0
    3.3641   -1.2787   -0.4783 C   0  0  0  0  0  0  0  0  0  0  0  0
    2.8061   -1.9331   -1.5399 C   0  0  0  0  0  0  0  0  0  0  0  0
    1.5681   -1.5207   -2.0564 C   0  0  0  0  0  0  0  0  0  0  0  0
    0.8949   -0.4721   -1.4942 C   0  0  0  0  0  0  0  0  0  0  0  0
    1.4271    0.2067   -0.3809 C   0  0  0  0  0  0  0  0  0  0  0  0
   -0.0538   -0.1535   -1.9010 H   0  0  0  0  0  0  0  0  0  0  0  0
    1.1498   -2.0390   -2.9073 H   0  0  0  0  0  0  0  0  0  0  0  0
    3.3179   -2.7680   -1.9965 H   0  0  0  0  0  0  0  0  0  0  0  0
    4.3216   -1.5661   -0.0726 H   0  0  0  0  0  0  0  0  0  0  0  0
    3.2110    1.9248    2.5230 H   0  0  0  0  0  0  0  0  0  0  0  0
    0.9646    2.7384    1.8291 H   0  0  0  0  0  0  0  0  0  0  0  0
   -0.3987    3.8716   -0.6938 H   0  0  0  0  0  0  0  0  0  0  0  0
   -2.8901    3.6254   -1.1413 H   0  0  0  0  0  0  0  0  0  0  0  0
   -0.1441   -2.6373    1.8256 H   0  0  0  0  0  0  0  0  0  0  0  0
   -2.1232   -4.0783    1.3175 H   0  0  0  0  0  0  0  0  0  0  0  0
  1  2  2  0
  1  6  1  0
  1 33  1  0
  2  3  1  0
  2 32  1  0
  3  4  2  0
  4  5  1  0
  4  9  1  0
  5  6  2  0
  5  8  1  0
  6  7  1  0
  9 10  2  0
  9 13  1  0
 10 11  1  0
 11 12  1  0
 11 31  1  0
 12 13  2  0
 12 30  1  0
 13 14  1  0
 14 15  2  0
 14 23  1  0
 15 16  1  0
 15 29  1  0
 16 17  2  0
 16 28  1  0
 17 18  1  0
 18 19  1  0
 18 23  2  0
 19 20  2  0
 19 27  1  0
 20 21  1  0
 20 26  1  0
 21 22  2  0
 21 25  1  0
 22 23  1  0
 22 24  1  0
M  END
$$$$

     RDKit          3D

 33 36  0  0  0  0  0  0  0  0999 V2000
   -3.6482   -2.3447   -0.8499 C   0  0  0  0  0  0  0  0  0  0  0  0
   -2.2725   -2.2594   -0.6959 C   0  0  0  0  0  0  0  0  0  0  0  0
   -1.6426   -1.1464   -0.3769 N   0  0  0  0  0  0  0  0  0  0  0  0
   -2.3602   -0.0416   -0.1892 C   0  0  0  0  0  0  0  0  0  0  0  0
   -3.7506   -0.0197   -0.3262 C   0  0  0  0  0  0  0  0  0  0  0  0
   -4.3990   -1.1927   -0.6617 C   0  0  0  0  0  0  0  0  0  0  0  0
   -5.4738   -1.2129   -0.7751 H   0  0  0  0  0  0  0  0  0  0  0  0
   -4.2810    0.9054   -0.1695 H   0  0  0  0  0  0  0  0  0  0  0  0
   -1.6325    1.1675    0.1593 C   0  0  0  0  0  0  0  0  0  0  0  0
   -2.2038    2.3652    0.1271 N   0  0  0  0  0  0  0  0  0  0  0  0
   -1.2584    3.2337    0.4543 N   0  0  0  0  0  0  0  0  0  0  0  0
   -0.0705    2.6372    0.6939 C   0  0  0  0  0  0  0  0  0  0  0  0
   -0.2614    1.2835    0.5201 C   0  0  0  0  0  0  0  0  0  0  0  0
    0.7036    0.2055    0.7204 C   0  0  0  0  0  0  0  0  0  0  0  0
    0.4682   -0.7711    1.6605 C   0  0  0  0  0  0  0  0  0  0  0  0
    1.4259   -1.7749    1.8584 C   0  0  0  0  0  0  0  0  0  0  0  0
    2.5535   -1.8489    1.2082 N   0  0  0  0  0  0  0  0  0  0  0  0
    2.8135   -0.9137    0.2729 C   0  0  0  0  0  0  0  0  0  0  0  0
    4.0302   -1.0008   -0.4363 C   0  0  0  0  0  0  0  0  0  0  0  0
    4.3357   -0.0847   -1.4026 C   0  0  0  0  0  0  0  0  0  0  0  0
    3.4386    0.9508   -1.7079 C   0  0  0  0  0  0  0  0  0  0  0  0
    2.2541    1.0650   -1.0347 C   0  0  0  0  0  0  0  0  0  0  0  0
    1.9129    0.1477   -0.0209 C   0  0  0  0  0  0  0  0  0  0  0  0
    1.5594    1.8551   -1.2811 H   0  0  0  0  0  0  0  0  0  0  0  0
    3.6909    1.6577   -2.4852 H   0  0  0  0  0  0  0  0  0  0  0  0
    5.2670   -0.1543   -1.9458 H   0  0  0  0  0  0  0  0  0  0  0  0
    4.6970   -1.8126   -0.1910 H   0  0  0  0  0  0  0  0  0  0  0  0
    1.2562   -2.5491    2.5971 H   0  0  0  0  0  0  0  0  0  0  0  0
   -0.4394   -0.7640    2.2442 H   0  0  0  0  0  0  0  0  0  0  0  0
    0.8001    3.1905    0.9832 H   0  0  0  0  0  0  0  0  0  0  0  0
   -1.4761    4.2171    0.4957 H   0  0  0  0  0  0  0  0  0  0  0  0
   -1.6369   -3.1249   -0.8351 H   0  0  0  0  0  0  0  0  0  0  0  0
   -4.1166   -3.2812   -1.1103 H   0  0  0  0  0  0  0  0  0  0  0  0
  1  2  2  0
  1  6  1  0
  1 33  1  0
  2  3  1  0
  2 32  1  0
  3  4  2  0
  4  5  1  0
  4  9  1  0
  5  6  2  0
  5  8  1  0
  6  7  1  0
  9 10  2  0
  9 13  1  0
 10 11  1  0
 11 12  1  0
 11 31  1  0
 12 13  2  0
 12 30  1  0
 13 14  1  0
 14 15  2  0
 14 23  1  0
 15 16  1  0
 15 29  1  0
 16 17  2  0
 16 28  1  0
 17 18  1  0
 18 19  1  0
 18 23  2  0
 19 20  2  0
 19 27  1  0
 20 21  1  0
 20 26  1  0
 21 22  2  0
 21 25  1  0
 22 23  1  0
 22 24  1  0
M  END
$$$$

     RDKit          3D

 33 36  0  0  0  0  0  0  0  0999 V2000
    2.0500    3.0407    0.9808 C   0  0  0  0  0  0  0  0  0  0  0  0
    2.7929    2.4525   -0.0317 C   0  0  0  0  0  0  0  0  0  0  0  0
    2.6986    1.1796   -0.3618 N   0  0  0  0  0  0  0  0  0  0  0  0
    1.8530    0.4101    0.3149 C   0  0  0  0  0  0  0  0  0  0  0  0
    1.0751    0.8996    1.3664 C   0  0  0  0  0  0  0  0  0  0  0  0
    1.1756    2.2378    1.6970 C   0  0  0  0  0  0  0  0  0  0  0  0
    0.5811    2.6482    2.5008 H   0  0  0  0  0  0  0  0  0  0  0  0
    0.4154    0.2422    1.9120 H   0  0  0  0  0  0  0  0  0  0  0  0
    1.7429   -0.9883   -0.0969 C   0  0  0  0  0  0  0  0  0  0  0  0
    2.7885   -1.7221   -0.4363 N   0  0  0  0  0  0  0  0  0  0  0  0
    2.3193   -2.9296   -0.7185 N   0  0  0  0  0  0  0  0  0  0  0  0
    0.9820   -3.0133   -0.5634 C   0  0  0  0  0  0  0  0  0  0  0  0
    0.5504   -1.7654   -0.1652 C   0  0  0  0  0  0  0  0  0  0  0  0
   -0.8145   -1.3517    0.1378 C   0  0  0  0  0  0  0  0  0  0  0  0
   -1.5903   -2.1016    0.9948 C   0  0  0  0  0  0  0  0  0  0  0  0
   -2.8713   -1.6464    1.3378 C   0  0  0  0  0  0  0  0  0  0  0  0
   -3.3882   -0.5309    0.9058 N   0  0  0  0  0  0  0  0  0  0  0  0
   -2.6710    0.2149    0.0404 C   0  0  0  0  0  0  0  0  0  0  0  0
   -3.2429    1.4130   -0.4363 C   0  0  0  0  0  0  0  0  0  0  0  0
   -2.5692    2.1910   -1.3349 C   0  0  0  0  0  0  0  0  0  0  0  0
   -1.3097    1.7958   -1.8110 C   0  0  0  0  0  0  0  0  0  0  0  0
   -0.7255    0.6436   -1.3632 C   0  0  0  0  0  0  0  0  0  0  0  0
   -1.3739   -0.1621   -0.4060 C   0  0  0  0  0  0  0  0  0  0  0  0
    0.2354    0.3387   -1.7495 H   0  0  0  0  0  0  0  0  0  0  0  0
   -0.8019    2.4079   -2.5418 H   0  0  0  0  0  0  0  0  0  0  0  0
   -3.0078    3.1093   -1.6973 H   0  0  0  0  0  0  0  0  0  0  0  0
   -4.2227    1.6802   -0.0726 H   0  0  0  0  0  0  0  0  0  0  0  0
   -3.4882   -2.2215    2.0176 H   0  0  0  0  0  0  0  0  0  0  0  0
   -1.2057   -3.0141    1.4259 H   0  0  0  0  0  0  0  0  0  0  0  0
    0.4345   -3.9120   -0.7637 H   0  0  0  0  0  0  0  0  0  0  0  0
    2.9551   -3.6563   -1.0079 H   0  0  0  0  0  0  0  0  0  0  0  0
    3.4968    3.0307   -0.6169 H   0  0  0  0  0  0  0  0  0  0  0  0
    2.1539    4.0912    1.2038 H   0  0  0  0  0  0  0  0  0  0  0  0
  1  2  2  0
  1  6  1  0
  1 33  1  0
  2  3  1  0
  2 32  1  0
  3  4  2  0
  4  5  1  0
  4  9  1  0
  5  6  2  0
  5  8  1  0
  6  7  1  0
  9 10  2  0
  9 13  1  0
 10 11  1  0
 11 12  1  0
 11 31  1  0
 12 13  2  0
 12 30  1  0
 13 14  1  0
 14 15  2  0
 14 23  1  0
 15 16  1  0
 15 29  1  0
 16 17  2  0
 16 28  1  0
 17 18  1  0
 18 19  1  0
 18 23  2  0
 19 20  2  0
 19 27  1  0
 20 21  1  0
 20 26  1  0
 21 22  2  0
 21 25  1  0
 22 23  1  0
 22 24  1  0
M  END
$$$$

     RDKit          3D

 33 36  0  0  0  0  0  0  0  0999 V2000
   -3.8549   -2.1775   -0.7904 C   0  0  0  0  0  0  0  0  0  0  0  0
   -4.3247   -1.1122   -0.0366 C   0  0  0  0  0  0  0  0  0  0  0  0
   -3.6100   -0.0376    0.2342 N   0  0  0  0  0  0  0  0  0  0  0  0
   -2.3727    0.0379   -0.2432 C   0  0  0  0  0  0  0  0  0  0  0  0
   -1.8087   -0.9752   -1.0225 C   0  0  0  0  0  0  0  0  0  0  0  0
   -2.5657   -2.0994   -1.2952 C   0  0  0  0  0  0  0  0  0  0  0  0
   -2.1576   -2.9013   -1.8939 H   0  0  0  0  0  0  0  0  0  0  0  0
   -0.8063   -0.8734   -1.4100 H   0  0  0  0  0  0  0  0  0  0  0  0
   -1.5995    1.2348    0.0806 C   0  0  0  0  0  0  0  0  0  0  0  0
   -2.1148    2.4515    0.0533 N   0  0  0  0  0  0  0  0  0  0  0  0
   -1.1272    3.2790    0.3663 N   0  0  0  0  0  0  0  0  0  0  0  0
    0.0361    2.6344    0.5924 C   0  0  0  0  0  0  0  0  0  0  0  0
   -0.2168    1.2893    0.4177 C   0  0  0  0  0  0  0  0  0  0  0  0
    0.6800    0.1584    0.6240 C   0  0  0  0  0  0  0  0  0  0  0  0
    0.2854   -0.8918    1.4247 C   0  0  0  0  0  0  0  0  0  0  0  0
    1.1678   -1.9589    1.6412 C   0  0  0  0  0  0  0  0  0  0  0  0
    2.3659   -2.0303    1.1321 N   0  0  0  0  0  0  0  0  0  0  0  0
    2.7810   -1.0298    0.3294 C   0  0  0  0  0  0  0  0  0  0  0  0
    4.0725   -1.1200   -0.2312 C   0  0  0  0  0  0  0  0  0  0  0  0
    4.5322   -0.1464   -1.0722 C   0  0  0  0  0  0  0  0  0  0  0  0
    3.7191    0.9497   -1.3992 C   0  0  0  0  0  0  0  0  0  0  0  0
    2.4661    1.0704   -0.8650 C   0  0  0  0  0  0  0  0  0  0  0  0
    1.9686    0.0986    0.0260 C   0  0  0  0  0  0  0  0  0  0  0  0
    1.8371    1.9066   -1.1333 H   0  0  0  0  0  0  0  0  0  0  0  0
    4.0899    1.6991   -2.0834 H   0  0  0  0  0  0  0  0  0  0  0  0
    5.5207   -0.2182   -1.5015 H   0  0  0  0  0  0  0  0  0  0  0  0
    4.6696   -1.9815    0.0231 H   0  0  0  0  0  0  0  0  0  0  0  0
    0.8725   -2.7873    2.2732 H   0  0  0  0  0  0  0  0  0  0  0  0
   -0.6866   -0.8863    1.8945 H   0  0  0  0  0  0  0  0  0  0  0  0
    0.9301    3.1481    0.8838 H   0  0  0  0  0  0  0  0  0  0  0  0
   -1.3033    4.2704    0.4123 H   0  0  0  0  0  0  0  0  0  0  0  0
   -5.3245   -1.1192    0.3786 H   0  0  0  0  0  0  0  0  0  0  0  0
   -4.4772   -3.0387   -0.9782 H   0  0  0  0  0  0  0  0  0  0  0  0
  1  2  2  0
  1  6  1  0
  1 33  1  0
  2  3  1  0
  2 32  1  0
  3  4  2  0
  4  5  1  0
  4  9  1  0
  5  6  2  0
  5  8  1  0
  6  7  1  0
  9 10  2  0
  9 13  1  0
 10 11  1  0
 11 12  1  0
 11 31  1  0
 12 13  2  0
 12 30  1  0
 13 14  1  0
 14 15  2  0
 14 23  1  0
 15 16  1  0
 15 29  1  0
 16 17  2  0
 16 28  1  0
 17 18  1  0
 18 19  1  0
 18 23  2  0
 19 20  2  0
 19 27  1  0
 20 21  1  0
 20 26  1  0
 21 22  2  0
 21 25  1  0
 22 23  1  0
 22 24  1  0
M  END
$$$$
