
     RDKit          3D

 50 53  0  0  0  0  0  0  0  0999 V2000
   -6.6243   -2.0002    0.3884 C   0  0  0  0  0  0  0  0  0  0  0  0
   -5.1310   -1.8989    0.2823 C   0  0  0  0  0  0  0  0  0  0  0  0
   -4.4210   -1.0538    1.1206 C   0  0  0  0  0  0  0  0  0  0  0  0
   -3.0431   -0.9092    1.0355 C   0  0  0  0  0  0  0  0  0  0  0  0
   -2.3608   -1.6297    0.0441 C   0  0  0  0  0  0  0  0  0  0  0  0
   -3.0577   -2.5161   -0.7888 C   0  0  0  0  0  0  0  0  0  0  0  0
   -4.4295   -2.6390   -0.6590 C   0  0  0  0  0  0  0  0  0  0  0  0
   -4.9639   -3.3169   -1.3113 H   0  0  0  0  0  0  0  0  0  0  0  0
   -2.3045   -3.3054   -1.8178 C   0  0  0  0  0  0  0  0  0  0  0  0
   -1.7191   -2.6403   -2.4514 H   0  0  0  0  0  0  0  0  0  0  0  0
   -1.6120   -3.9991   -1.3399 H   0  0  0  0  0  0  0  0  0  0  0  0
   -2.9889   -3.8747   -2.4425 H   0  0  0  0  0  0  0  0  0  0  0  0
   -0.9753   -1.5547   -0.1107 N   0  0  0  0  0  0  0  0  0  0  0  0
   -0.2363   -0.4272   -0.1770 C   0  0  0  0  0  0  0  0  0  0  0  0
    1.1756   -0.4676   -0.0738 C   0  0  0  0  0  0  0  0  0  0  0  0
    1.9101    0.7614   -0.0358 C   0  0  0  0  0  0  0  0  0  0  0  0
    1.2100    1.9970   -0.0929 C   0  0  0  0  0  0  0  0  0  0  0  0
    1.7956    3.1841    0.0323 N   0  0  0  0  0  0  0  0  0  0  0  0
    2.8039    3.2037    0.1317 H   0  0  0  0  0  0  0  0  0  0  0  0
    1.1704    3.9932   -0.0945 H   0  0  0  0  0  0  0  0  0  0  0  0
   -0.1885    1.9765   -0.3315 C   0  0  0  0  0  0  0  0  0  0  0  0
   -0.8764    0.8182   -0.3932 C   0  0  0  0  0  0  0  0  0  0  0  0
   -1.9313    0.8608   -0.6131 H   0  0  0  0  0  0  0  0  0  0  0  0
   -1.2294    3.4613   -0.2770 S   0  0  1  0  0  0  0  0  0  0  0  0
   -0.3419    4.6200   -0.4480 O   0  0  0  0  0  0  0  0  0  0  0  0
   -2.2007    3.3003   -1.3421 O   0  0  0  0  0  0  0  0  0  0  0  0
   -1.7799    3.3390    1.0682 O   0  0  0  0  0  0  0  0  0  0  0  0
    3.3460    0.7775    0.0867 C   0  0  0  0  0  0  0  0  0  0  0  0
    4.0266    1.8139    0.1719 O   0  0  0  0  0  0  0  0  0  0  0  0
    4.0269   -0.5308    0.1078 C   0  0  0  0  0  0  0  0  0  0  0  0
    5.4196   -0.5705    0.1764 C   0  0  0  0  0  0  0  0  0  0  0  0
    6.0928   -1.7731    0.2005 C   0  0  0  0  0  0  0  0  0  0  0  0
    5.3801   -2.9664    0.1579 C   0  0  0  0  0  0  0  0  0  0  0  0
    4.0041   -2.9413    0.0914 C   0  0  0  0  0  0  0  0  0  0  0  0
    3.3109   -1.7297    0.0648 C   0  0  0  0  0  0  0  0  0  0  0  0
    1.8435   -1.7439   -0.0103 C   0  0  0  0  0  0  0  0  0  0  0  0
    1.2488   -2.8420   -0.0346 O   0  0  0  0  0  0  0  0  0  0  0  0
    3.4279   -3.8547    0.0580 H   0  0  0  0  0  0  0  0  0  0  0  0
    5.9060   -3.9113    0.1774 H   0  0  0  0  0  0  0  0  0  0  0  0
    7.1728   -1.7905    0.2530 H   0  0  0  0  0  0  0  0  0  0  0  0
    5.9494    0.3704    0.2099 H   0  0  0  0  0  0  0  0  0  0  0  0
   -0.4162   -2.4159   -0.1353 H   0  0  0  0  0  0  0  0  0  0  0  0
   -2.3404   -0.0367    2.0298 C   0  0  0  0  0  0  0  0  0  0  0  0
   -2.8780   -0.0539    2.9766 H   0  0  0  0  0  0  0  0  0  0  0  0
   -2.2941    1.0026    1.6950 H   0  0  0  0  0  0  0  0  0  0  0  0
   -1.3208   -0.3768    2.2000 H   0  0  0  0  0  0  0  0  0  0  0  0
   -4.9529   -0.4899    1.8741 H   0  0  0  0  0  0  0  0  0  0  0  0
   -6.9853   -2.9251   -0.0568 H   0  0  0  0  0  0  0  0  0  0  0  0
   -7.0914   -1.1650   -0.1348 H   0  0  0  0  0  0  0  0  0  0  0  0
   -6.9418   -1.9616    1.4288 H   0  0  0  0  0  0  0  0  0  0  0  0
  1  2  1  0
  1 48  1  0
  1 49  1  0
  1 50  1  0
  2  3  2  0
  2  7  1  0
  3  4  1  0
  3 47  1  0
  4  5  2  0
  4 43  1  0
  5  6  1  0
  5 13  1  0
  6  7  2  0
  6  9  1  0
  7  8  1  0
  9 10  1  0
  9 11  1  0
  9 12  1  0
 13 14  1  0
 13 42  1  0
 14 15  2  0
 14 22  1  0
 15 16  1  0
 15 36  1  0
 16 17  2  0
 16 28  1  0
 17 18  1  0
 17 21  1  0
 18 19  1  0
 18 20  1  0
 21 22  2  0
 21 24  1  0
 22 23  1  0
 24 25  2  0
 24 26  2  0
 24 27  1  1
 28 29  2  0
 28 30  1  0
 30 31  2  0
 30 35  1  0
 31 32  1  0
 31 41  1  0
 32 33  2  0
 32 40  1  0
 33 34  1  0
 33 39  1  0
 34 35  2  0
 34 38  1  0
 35 36  1  0
 36 37  2  0
 43 44  1  0
 43 45  1  0
 43 46  1  0
M  CHG  1  27  -1
M  END
$$$$
