
     RDKit          3D

 26 25  0  0  0  0  0  0  0  0999 V2000
   -3.2625   -0.3672    0.7100 C   0  0  0  0  0  0  0  0  0  0  0  0
   -2.0109   -0.1867   -0.0748 C   0  0  0  0  0  0  0  0  0  0  0  0
   -1.5545   -0.9478   -0.8903 O   0  0  0  0  0  0  0  0  0  0  0  0
   -1.3818    0.9675    0.2442 O   0  0  0  0  0  0  0  0  0  0  0  0
   -0.3059    1.3835   -0.5826 C   0  0  0  0  0  0  0  0  0  0  0  0
   -0.4545    2.4574   -0.7312 H   0  0  0  0  0  0  0  0  0  0  0  0
    1.0807    1.2186    0.0491 C   0  0  0  0  0  0  0  0  0  0  0  0
    1.0406    1.6140    1.0669 H   0  0  0  0  0  0  0  0  0  0  0  0
    1.7600    1.8411   -0.5373 H   0  0  0  0  0  0  0  0  0  0  0  0
    1.6770   -0.1520    0.1132 N   0  0  1  0  0  0  0  0  0  0  0  0
    1.5765   -0.8508   -1.1835 C   0  0  0  0  0  0  0  0  0  0  0  0
    2.1561   -1.7710   -1.1484 H   0  0  0  0  0  0  0  0  0  0  0  0
    1.9663   -0.2220   -1.9817 H   0  0  0  0  0  0  0  0  0  0  0  0
    0.5386   -1.1119   -1.3965 H   0  0  0  0  0  0  0  0  0  0  0  0
    3.1033    0.0054    0.4643 C   0  0  0  0  0  0  0  0  0  0  0  0
    3.5686   -0.9717    0.5820 H   0  0  0  0  0  0  0  0  0  0  0  0
    3.2071    0.5531    1.3995 H   0  0  0  0  0  0  0  0  0  0  0  0
    3.6312    0.5455   -0.3198 H   0  0  0  0  0  0  0  0  0  0  0  0
    1.0290   -0.9710    1.1546 C   0  0  0  0  0  0  0  0  0  0  0  0
   -0.0027   -1.1809    0.8882 H   0  0  0  0  0  0  0  0  0  0  0  0
    1.0537   -0.4570    2.1138 H   0  0  0  0  0  0  0  0  0  0  0  0
    1.5498   -1.9219    1.2526 H   0  0  0  0  0  0  0  0  0  0  0  0
   -0.3778    0.8793   -1.5510 H   0  0  0  0  0  0  0  0  0  0  0  0
   -3.2231    0.2039    1.6323 H   0  0  0  0  0  0  0  0  0  0  0  0
   -3.4367   -1.4221    0.9037 H   0  0  0  0  0  0  0  0  0  0  0  0
   -4.0940    0.0028    0.1103 H   0  0  0  0  0  0  0  0  0  0  0  0
  1  2  1  0
  1 24  1  0
  1 25  1  0
  1 26  1  0
  2  3  2  0
  2  4  1  0
  4  5  1  0
  5  6  1  0
  5  7  1  0
  5 23  1  0
  7  8  1  0
  7  9  1  0
 10  7  1  6
 10 11  1  0
 10 15  1  0
 10 19  1  0
 11 12  1  0
 11 13  1  0
 11 14  1  0
 15 16  1  0
 15 17  1  0
 15 18  1  0
 19 20  1  0
 19 21  1  0
 19 22  1  0
M  CHG  1  10   1
M  END
$$$$

     RDKit          3D

 26 25  0  0  0  0  0  0  0  0999 V2000
   -3.2603   -0.3851   -0.7056 C   0  0  0  0  0  0  0  0  0  0  0  0
   -2.0131   -0.1822    0.0832 C   0  0  0  0  0  0  0  0  0  0  0  0
   -1.5445   -0.9391    0.8958 O   0  0  0  0  0  0  0  0  0  0  0  0
   -1.3929    0.9740   -0.2434 O   0  0  0  0  0  0  0  0  0  0  0  0
   -0.3061    1.3925    0.5674 C   0  0  0  0  0  0  0  0  0  0  0  0
   -0.3718    0.8996    1.5421 H   0  0  0  0  0  0  0  0  0  0  0  0
    1.0751    1.2162   -0.0733 C   0  0  0  0  0  0  0  0  0  0  0  0
    1.7579    1.8529    0.4935 H   0  0  0  0  0  0  0  0  0  0  0  0
    1.0251    1.5900   -1.0988 H   0  0  0  0  0  0  0  0  0  0  0  0
    1.6762   -0.1534   -0.1128 N   0  0  1  0  0  0  0  0  0  0  0  0
    1.5910   -0.8233    1.2002 C   0  0  0  0  0  0  0  0  0  0  0  0
    2.1747   -1.7416    1.1802 H   0  0  0  0  0  0  0  0  0  0  0  0
    0.5564   -1.0846    1.4279 H   0  0  0  0  0  0  0  0  0  0  0  0
    1.9850   -0.1751    1.9806 H   0  0  0  0  0  0  0  0  0  0  0  0
    1.0215   -0.9991   -1.1285 C   0  0  0  0  0  0  0  0  0  0  0  0
    1.0205   -0.5007   -2.0962 H   0  0  0  0  0  0  0  0  0  0  0  0
   -0.0010   -1.2206   -0.8370 H   0  0  0  0  0  0  0  0  0  0  0  0
    1.5549   -1.9436   -1.2209 H   0  0  0  0  0  0  0  0  0  0  0  0
    3.0982    0.0022   -0.4812 C   0  0  0  0  0  0  0  0  0  0  0  0
    3.6307    0.5641    0.2842 H   0  0  0  0  0  0  0  0  0  0  0  0
    3.1904    0.5272   -1.4306 H   0  0  0  0  0  0  0  0  0  0  0  0
    3.5676   -0.9751   -0.5792 H   0  0  0  0  0  0  0  0  0  0  0  0
   -0.4495    2.4685    0.7053 H   0  0  0  0  0  0  0  0  0  0  0  0
   -3.8967   -1.1069   -0.2021 H   0  0  0  0  0  0  0  0  0  0  0  0
   -3.0071   -0.7722   -1.6919 H   0  0  0  0  0  0  0  0  0  0  0  0
   -3.7778    0.5604   -0.8382 H   0  0  0  0  0  0  0  0  0  0  0  0
  1  2  1  0
  1 24  1  0
  1 25  1  0
  1 26  1  0
  2  3  2  0
  2  4  1  0
  4  5  1  0
  5  6  1  0
  5  7  1  0
  5 23  1  0
  7  8  1  0
  7  9  1  0
 10  7  1  1
 10 11  1  0
 10 15  1  0
 10 19  1  0
 11 12  1  0
 11 13  1  0
 11 14  1  0
 15 16  1  0
 15 17  1  0
 15 18  1  0
 19 20  1  0
 19 21  1  0
 19 22  1  0
M  CHG  1  10   1
M  END
$$$$

     RDKit          3D

 26 25  0  0  0  0  0  0  0  0999 V2000
   -3.1886   -0.9099   -0.4596 C   0  0  0  0  0  0  0  0  0  0  0  0
   -2.1307   -0.0485    0.1404 C   0  0  0  0  0  0  0  0  0  0  0  0
   -2.0195    0.2705    1.2907 O   0  0  0  0  0  0  0  0  0  0  0  0
   -1.2299    0.3605   -0.7985 O   0  0  0  0  0  0  0  0  0  0  0  0
   -0.2870    1.3373   -0.3889 C   0  0  0  0  0  0  0  0  0  0  0  0
   -0.8142    2.1328    0.1521 H   0  0  0  0  0  0  0  0  0  0  0  0
    0.7936    0.8248    0.5699 C   0  0  0  0  0  0  0  0  0  0  0  0
    0.2880    0.3940    1.4382 H   0  0  0  0  0  0  0  0  0  0  0  0
    1.3686    1.6921    0.9005 H   0  0  0  0  0  0  0  0  0  0  0  0
    1.7510   -0.1865    0.0340 N   0  0  1  0  0  0  0  0  0  0  0  0
    2.4560    0.3260   -1.1551 C   0  0  0  0  0  0  0  0  0  0  0  0
    1.7679    0.4352   -1.9902 H   0  0  0  0  0  0  0  0  0  0  0  0
    3.2398   -0.3703   -1.4485 H   0  0  0  0  0  0  0  0  0  0  0  0
    2.9105    1.2912   -0.9383 H   0  0  0  0  0  0  0  0  0  0  0  0
    2.7413   -0.4716    1.0917 C   0  0  0  0  0  0  0  0  0  0  0  0
    3.3030    0.4275    1.3387 H   0  0  0  0  0  0  0  0  0  0  0  0
    3.4393   -1.2361    0.7550 H   0  0  0  0  0  0  0  0  0  0  0  0
    2.2425   -0.8289    1.9911 H   0  0  0  0  0  0  0  0  0  0  0  0
    1.0541   -1.4385   -0.3155 C   0  0  0  0  0  0  0  0  0  0  0  0
    0.5272   -1.8294    0.5536 H   0  0  0  0  0  0  0  0  0  0  0  0
    1.7738   -2.1823   -0.6529 H   0  0  0  0  0  0  0  0  0  0  0  0
    0.3329   -1.2595   -1.1104 H   0  0  0  0  0  0  0  0  0  0  0  0
    0.1250    1.7520   -1.3096 H   0  0  0  0  0  0  0  0  0  0  0  0
   -4.0743   -0.2961   -0.6207 H   0  0  0  0  0  0  0  0  0  0  0  0
   -3.4602   -1.7027    0.2319 H   0  0  0  0  0  0  0  0  0  0  0  0
   -2.8672   -1.3135   -1.4144 H   0  0  0  0  0  0  0  0  0  0  0  0
  1  2  1  0
  1 24  1  0
  1 25  1  0
  1 26  1  0
  2  3  2  0
  2  4  1  0
  4  5  1  0
  5  6  1  0
  5  7  1  0
  5 23  1  0
  7  8  1  0
  7  9  1  0
 10  7  1  1
 10 11  1  0
 10 15  1  0
 10 19  1  0
 11 12  1  0
 11 13  1  0
 11 14  1  0
 15 16  1  0
 15 17  1  0
 15 18  1  0
 19 20  1  0
 19 21  1  0
 19 22  1  0
M  CHG  1  10   1
M  END
$$$$

     RDKit          3D

 26 25  0  0  0  0  0  0  0  0999 V2000
   -3.1717   -0.9852    0.3297 C   0  0  0  0  0  0  0  0  0  0  0  0
   -2.1353   -0.0211   -0.1409 C   0  0  0  0  0  0  0  0  0  0  0  0
   -2.0335    0.4598   -1.2340 O   0  0  0  0  0  0  0  0  0  0  0  0
   -1.2294    0.2544    0.8411 O   0  0  0  0  0  0  0  0  0  0  0  0
   -0.2856    1.2753    0.5628 C   0  0  0  0  0  0  0  0  0  0  0  0
    0.1279    1.5644    1.5297 H   0  0  0  0  0  0  0  0  0  0  0  0
    0.7935    0.8938   -0.4566 C   0  0  0  0  0  0  0  0  0  0  0  0
    1.3695    1.7967   -0.6690 H   0  0  0  0  0  0  0  0  0  0  0  0
    0.2874    0.5832   -1.3745 H   0  0  0  0  0  0  0  0  0  0  0  0
    1.7499   -0.1810   -0.0604 N   0  0  1  0  0  0  0  0  0  0  0  0
    1.0511   -1.4675    0.1176 C   0  0  0  0  0  0  0  0  0  0  0  0
    0.5295   -1.7396   -0.7988 H   0  0  0  0  0  0  0  0  0  0  0  0
    0.3261   -1.3940    0.9260 H   0  0  0  0  0  0  0  0  0  0  0  0
    1.7691   -2.2499    0.3575 H   0  0  0  0  0  0  0  0  0  0  0  0
    2.7410   -0.3226   -1.1459 C   0  0  0  0  0  0  0  0  0  0  0  0
    2.2430   -0.5555   -2.0856 H   0  0  0  0  0  0  0  0  0  0  0  0
    3.4382   -1.1260   -0.9141 H   0  0  0  0  0  0  0  0  0  0  0  0
    3.3037    0.6009   -1.2696 H   0  0  0  0  0  0  0  0  0  0  0  0
    2.4541    0.1666    1.1874 C   0  0  0  0  0  0  0  0  0  0  0  0
    1.7652    0.1635    2.0289 H   0  0  0  0  0  0  0  0  0  0  0  0
    2.9099    1.1516    1.1025 H   0  0  0  0  0  0  0  0  0  0  0  0
    3.2369   -0.5637    1.3854 H   0  0  0  0  0  0  0  0  0  0  0  0
   -0.8132    2.1355    0.1325 H   0  0  0  0  0  0  0  0  0  0  0  0
   -2.7993   -2.0026    0.2168 H   0  0  0  0  0  0  0  0  0  0  0  0
   -4.0652   -0.8792   -0.2787 H   0  0  0  0  0  0  0  0  0  0  0  0
   -3.3980   -0.8160    1.3781 H   0  0  0  0  0  0  0  0  0  0  0  0
  1  2  1  0
  1 24  1  0
  1 25  1  0
  1 26  1  0
  2  3  2  0
  2  4  1  0
  4  5  1  0
  5  6  1  0
  5  7  1  0
  5 23  1  0
  7  8  1  0
  7  9  1  0
 10  7  1  6
 10 11  1  0
 10 15  1  0
 10 19  1  0
 11 12  1  0
 11 13  1  0
 11 14  1  0
 15 16  1  0
 15 17  1  0
 15 18  1  0
 19 20  1  0
 19 21  1  0
 19 22  1  0
M  CHG  1  10   1
M  END
$$$$

     RDKit          3D

 26 25  0  0  0  0  0  0  0  0999 V2000
   -3.6567   -0.2199    0.3399 C   0  0  0  0  0  0  0  0  0  0  0  0
   -2.2135   -0.2167   -0.0240 C   0  0  0  0  0  0  0  0  0  0  0  0
   -1.5498   -1.1629   -0.3652 O   0  0  0  0  0  0  0  0  0  0  0  0
   -1.6745    1.0218    0.0678 O   0  0  0  0  0  0  0  0  0  0  0  0
   -0.3346    1.1597   -0.3701 C   0  0  0  0  0  0  0  0  0  0  0  0
   -0.1752    2.2354   -0.4566 H   0  0  0  0  0  0  0  0  0  0  0  0
    0.6332    0.5117    0.6414 C   0  0  0  0  0  0  0  0  0  0  0  0
    0.0856   -0.2818    1.1556 H   0  0  0  0  0  0  0  0  0  0  0  0
    0.9312    1.2540    1.3847 H   0  0  0  0  0  0  0  0  0  0  0  0
    1.8627   -0.0968    0.0650 N   0  0  1  0  0  0  0  0  0  0  0  0
    2.5902   -0.7604    1.1659 C   0  0  0  0  0  0  0  0  0  0  0  0
    2.7815   -0.0585    1.9760 H   0  0  0  0  0  0  0  0  0  0  0  0
    3.5443   -1.1426    0.8071 H   0  0  0  0  0  0  0  0  0  0  0  0
    2.0045   -1.5926    1.5528 H   0  0  0  0  0  0  0  0  0  0  0  0
    1.5355   -1.1141   -0.9597 C   0  0  0  0  0  0  0  0  0  0  0  0
    2.3763   -1.7921   -1.0882 H   0  0  0  0  0  0  0  0  0  0  0  0
    1.3322   -0.6467   -1.9201 H   0  0  0  0  0  0  0  0  0  0  0  0
    0.6539   -1.6832   -0.6632 H   0  0  0  0  0  0  0  0  0  0  0  0
    2.7234    0.9455   -0.5229 C   0  0  0  0  0  0  0  0  0  0  0  0
    2.1880    1.4866   -1.3000 H   0  0  0  0  0  0  0  0  0  0  0  0
    3.6099    0.4906   -0.9621 H   0  0  0  0  0  0  0  0  0  0  0  0
    3.0375    1.6528    0.2429 H   0  0  0  0  0  0  0  0  0  0  0  0
   -0.2470    0.6887   -1.3544 H   0  0  0  0  0  0  0  0  0  0  0  0
   -3.9175   -1.1579    0.8222 H   0  0  0  0  0  0  0  0  0  0  0  0
   -4.2423   -0.1405   -0.5756 H   0  0  0  0  0  0  0  0  0  0  0  0
   -3.8903    0.6282    0.9755 H   0  0  0  0  0  0  0  0  0  0  0  0
  1  2  1  0
  1 24  1  0
  1 25  1  0
  1 26  1  0
  2  3  2  0
  2  4  1  0
  4  5  1  0
  5  6  1  0
  5  7  1  0
  5 23  1  0
  7  8  1  0
  7  9  1  0
 10  7  1  1
 10 11  1  0
 10 15  1  0
 10 19  1  0
 11 12  1  0
 11 13  1  0
 11 14  1  0
 15 16  1  0
 15 17  1  0
 15 18  1  0
 19 20  1  0
 19 21  1  0
 19 22  1  0
M  CHG  1  10   1
M  END
$$$$

     RDKit          3D

 26 25  0  0  0  0  0  0  0  0999 V2000
   -3.6510   -0.2255   -0.3550 C   0  0  0  0  0  0  0  0  0  0  0  0
   -2.2143   -0.2137    0.0363 C   0  0  0  0  0  0  0  0  0  0  0  0
   -1.5502   -1.1586    0.3807 O   0  0  0  0  0  0  0  0  0  0  0  0
   -1.6763    1.0247   -0.0576 O   0  0  0  0  0  0  0  0  0  0  0  0
   -0.3325    1.1629    0.3679 C   0  0  0  0  0  0  0  0  0  0  0  0
   -0.2399    0.6999    1.3555 H   0  0  0  0  0  0  0  0  0  0  0  0
    0.6289    0.5052   -0.6433 C   0  0  0  0  0  0  0  0  0  0  0  0
    0.9230    1.2403   -1.3954 H   0  0  0  0  0  0  0  0  0  0  0  0
    0.0788   -0.2935   -1.1466 H   0  0  0  0  0  0  0  0  0  0  0  0
    1.8613   -0.0977   -0.0673 N   0  0  1  0  0  0  0  0  0  0  0  0
    1.5393   -1.1030    0.9708 C   0  0  0  0  0  0  0  0  0  0  0  0
    0.6554   -1.6747    0.6860 H   0  0  0  0  0  0  0  0  0  0  0  0
    1.3425   -0.6247    1.9273 H   0  0  0  0  0  0  0  0  0  0  0  0
    2.3803   -1.7805    1.1017 H   0  0  0  0  0  0  0  0  0  0  0  0
    2.5818   -0.7745   -1.1648 C   0  0  0  0  0  0  0  0  0  0  0  0
    2.7675   -0.0828   -1.9848 H   0  0  0  0  0  0  0  0  0  0  0  0
    1.9940   -1.6118   -1.5373 H   0  0  0  0  0  0  0  0  0  0  0  0
    3.5385   -1.1518   -0.8075 H   0  0  0  0  0  0  0  0  0  0  0  0
    2.7264    0.9504    0.5036 C   0  0  0  0  0  0  0  0  0  0  0  0
    2.1945    1.5038    1.2743 H   0  0  0  0  0  0  0  0  0  0  0  0
    3.0403    1.6460   -0.2729 H   0  0  0  0  0  0  0  0  0  0  0  0
    3.6128    0.4993    0.9468 H   0  0  0  0  0  0  0  0  0  0  0  0
   -0.1709    2.2390    0.4448 H   0  0  0  0  0  0  0  0  0  0  0  0
   -4.0799    0.7660   -0.2526 H   0  0  0  0  0  0  0  0  0  0  0  0
   -4.1888   -0.9485    0.2524 H   0  0  0  0  0  0  0  0  0  0  0  0
   -3.7320   -0.5379   -1.3956 H   0  0  0  0  0  0  0  0  0  0  0  0
  1  2  1  0
  1 24  1  0
  1 25  1  0
  1 26  1  0
  2  3  2  0
  2  4  1  0
  4  5  1  0
  5  6  1  0
  5  7  1  0
  5 23  1  0
  7  8  1  0
  7  9  1  0
 10  7  1  6
 10 11  1  0
 10 15  1  0
 10 19  1  0
 11 12  1  0
 11 13  1  0
 11 14  1  0
 15 16  1  0
 15 17  1  0
 15 18  1  0
 19 20  1  0
 19 21  1  0
 19 22  1  0
M  CHG  1  10   1
M  END
$$$$

     RDKit          3D

 26 25  0  0  0  0  0  0  0  0999 V2000
   -3.6529   -0.2133   -0.3755 C   0  0  0  0  0  0  0  0  0  0  0  0
   -2.2197   -0.2164    0.0265 C   0  0  0  0  0  0  0  0  0  0  0  0
   -1.5700   -1.1568    0.4034 O   0  0  0  0  0  0  0  0  0  0  0  0
   -1.6679    1.0195   -0.0711 O   0  0  0  0  0  0  0  0  0  0  0  0
   -0.3382    1.1422    0.3953 C   0  0  0  0  0  0  0  0  0  0  0  0
   -0.2656    0.6225    1.3572 H   0  0  0  0  0  0  0  0  0  0  0  0
    0.6505    0.5540   -0.6333 C   0  0  0  0  0  0  0  0  0  0  0  0
    0.9695    1.3460   -1.3141 H   0  0  0  0  0  0  0  0  0  0  0  0
    0.1124   -0.1979   -1.2159 H   0  0  0  0  0  0  0  0  0  0  0  0
    1.8647   -0.0977   -0.0701 N   0  0  1  0  0  0  0  0  0  0  0  0
    1.5156   -1.3474    0.6342 C   0  0  0  0  0  0  0  0  0  0  0  0
    1.0479   -2.0493   -0.0536 H   0  0  0  0  0  0  0  0  0  0  0  0
    0.8077   -1.1650    1.4383 H   0  0  0  0  0  0  0  0  0  0  0  0
    2.4123   -1.8008    1.0513 H   0  0  0  0  0  0  0  0  0  0  0  0
    2.7647   -0.4330   -1.1920 C   0  0  0  0  0  0  0  0  0  0  0  0
    2.2530   -1.0721   -1.9094 H   0  0  0  0  0  0  0  0  0  0  0  0
    3.6413   -0.9617   -0.8217 H   0  0  0  0  0  0  0  0  0  0  0  0
    3.0941    0.4713   -1.7010 H   0  0  0  0  0  0  0  0  0  0  0  0
    2.5693    0.8174    0.8465 C   0  0  0  0  0  0  0  0  0  0  0  0
    1.9669    1.0201    1.7285 H   0  0  0  0  0  0  0  0  0  0  0  0
    2.7853    1.7591    0.3449 H   0  0  0  0  0  0  0  0  0  0  0  0
    3.5090    0.3701    1.1669 H   0  0  0  0  0  0  0  0  0  0  0  0
   -0.1821    2.2118    0.5416 H   0  0  0  0  0  0  0  0  0  0  0  0
   -3.9309   -1.1850   -0.7735 H   0  0  0  0  0  0  0  0  0  0  0  0
   -3.8436    0.5771   -1.0949 H   0  0  0  0  0  0  0  0  0  0  0  0
   -4.2581   -0.0242    0.5106 H   0  0  0  0  0  0  0  0  0  0  0  0
  1  2  1  0
  1 24  1  0
  1 25  1  0
  1 26  1  0
  2  3  2  0
  2  4  1  0
  4  5  1  0
  5  6  1  0
  5  7  1  0
  5 23  1  0
  7  8  1  0
  7  9  1  0
 10  7  1  6
 10 11  1  0
 10 15  1  0
 10 19  1  0
 11 12  1  0
 11 13  1  0
 11 14  1  0
 15 16  1  0
 15 17  1  0
 15 18  1  0
 19 20  1  0
 19 21  1  0
 19 22  1  0
M  CHG  1  10   1
M  END
$$$$

     RDKit          3D

 26 25  0  0  0  0  0  0  0  0999 V2000
    3.6107    0.1821   -0.4930 C   0  0  0  0  0  0  0  0  0  0  0  0
    2.2189    0.2065    0.0332 C   0  0  0  0  0  0  0  0  0  0  0  0
    1.6408    1.1493    0.5085 O   0  0  0  0  0  0  0  0  0  0  0  0
    1.6218   -1.0057   -0.0690 O   0  0  0  0  0  0  0  0  0  0  0  0
    0.3295   -1.1262    0.4962 C   0  0  0  0  0  0  0  0  0  0  0  0
    0.2770   -0.4566    1.3615 H   0  0  0  0  0  0  0  0  0  0  0  0
   -0.7593   -0.7943   -0.5471 C   0  0  0  0  0  0  0  0  0  0  0  0
   -1.2091   -1.7230   -0.9033 H   0  0  0  0  0  0  0  0  0  0  0  0
   -0.2678   -0.3133   -1.3972 H   0  0  0  0  0  0  0  0  0  0  0  0
   -1.8587    0.1026   -0.0887 N   0  0  1  0  0  0  0  0  0  0  0  0
   -2.4437   -0.3822    1.1758 C   0  0  0  0  0  0  0  0  0  0  0  0
   -1.7515   -0.2475    2.0028 H   0  0  0  0  0  0  0  0  0  0  0  0
   -2.6942   -1.4384    1.0941 H   0  0  0  0  0  0  0  0  0  0  0  0
   -3.3519    0.1754    1.3988 H   0  0  0  0  0  0  0  0  0  0  0  0
   -1.3692    1.4867    0.0785 C   0  0  0  0  0  0  0  0  0  0  0  0
   -2.1216    2.0909    0.5802 H   0  0  0  0  0  0  0  0  0  0  0  0
   -1.1613    1.9263   -0.8955 H   0  0  0  0  0  0  0  0  0  0  0  0
   -0.4439    1.5152    0.6544 H   0  0  0  0  0  0  0  0  0  0  0  0
   -2.9139    0.0985   -1.1223 C   0  0  0  0  0  0  0  0  0  0  0  0
   -3.3719   -0.8864   -1.1972 H   0  0  0  0  0  0  0  0  0  0  0  0
   -2.4972    0.3650   -2.0921 H   0  0  0  0  0  0  0  0  0  0  0  0
   -3.6858    0.8227   -0.8668 H   0  0  0  0  0  0  0  0  0  0  0  0
    0.2517   -2.1614    0.8315 H   0  0  0  0  0  0  0  0  0  0  0  0
    3.7569   -0.6711   -1.1475 H   0  0  0  0  0  0  0  0  0  0  0  0
    4.2953    0.1001    0.3507 H   0  0  0  0  0  0  0  0  0  0  0  0
    3.8301    1.1147   -1.0061 H   0  0  0  0  0  0  0  0  0  0  0  0
  1  2  1  0
  1 24  1  0
  1 25  1  0
  1 26  1  0
  2  3  2  0
  2  4  1  0
  4  5  1  0
  5  6  1  0
  5  7  1  0
  5 23  1  0
  7  8  1  0
  7  9  1  0
 10  7  1  6
 10 11  1  0
 10 15  1  0
 10 19  1  0
 11 12  1  0
 11 13  1  0
 11 14  1  0
 15 16  1  0
 15 17  1  0
 15 18  1  0
 19 20  1  0
 19 21  1  0
 19 22  1  0
M  CHG  1  10   1
M  END
$$$$

     RDKit          3D

 26 25  0  0  0  0  0  0  0  0999 V2000
    3.6407    0.2103   -0.4185 C   0  0  0  0  0  0  0  0  0  0  0  0
    2.2240    0.2097    0.0399 C   0  0  0  0  0  0  0  0  0  0  0  0
    1.5898    1.1492    0.4447 O   0  0  0  0  0  0  0  0  0  0  0  0
    1.6618   -1.0207   -0.0604 O   0  0  0  0  0  0  0  0  0  0  0  0
    0.3343   -1.1350    0.4141 C   0  0  0  0  0  0  0  0  0  0  0  0
    0.2644   -0.5827    1.3582 H   0  0  0  0  0  0  0  0  0  0  0  0
   -0.6647   -0.5890   -0.6281 C   0  0  0  0  0  0  0  0  0  0  0  0
   -1.0006   -1.4103   -1.2643 H   0  0  0  0  0  0  0  0  0  0  0  0
   -0.1307    0.1292   -1.2557 H   0  0  0  0  0  0  0  0  0  0  0  0
   -1.8647    0.0996   -0.0767 N   0  0  1  0  0  0  0  0  0  0  0  0
   -1.4962    1.4099    0.4968 C   0  0  0  0  0  0  0  0  0  0  0  0
   -2.3510    1.8468    1.0085 H   0  0  0  0  0  0  0  0  0  0  0  0
   -1.1744    2.0859   -0.2933 H   0  0  0  0  0  0  0  0  0  0  0  0
   -0.6687    1.3182    1.1966 H   0  0  0  0  0  0  0  0  0  0  0  0
   -2.8156    0.3254   -1.1841 C   0  0  0  0  0  0  0  0  0  0  0  0
   -2.3326    0.8702   -1.9933 H   0  0  0  0  0  0  0  0  0  0  0  0
   -3.6642    0.9094   -0.8320 H   0  0  0  0  0  0  0  0  0  0  0  0
   -3.1829   -0.6236   -1.5713 H   0  0  0  0  0  0  0  0  0  0  0  0
   -2.5238   -0.7335    0.9464 C   0  0  0  0  0  0  0  0  0  0  0  0
   -2.7158   -1.7301    0.5528 H   0  0  0  0  0  0  0  0  0  0  0  0
   -3.4730   -0.2839    1.2334 H   0  0  0  0  0  0  0  0  0  0  0  0
   -1.9036   -0.8200    1.8348 H   0  0  0  0  0  0  0  0  0  0  0  0
    0.1839   -2.1995    0.5984 H   0  0  0  0  0  0  0  0  0  0  0  0
    3.6781    0.5482   -1.4535 H   0  0  0  0  0  0  0  0  0  0  0  0
    4.0579   -0.7899   -0.3611 H   0  0  0  0  0  0  0  0  0  0  0  0
    4.2178    0.9091    0.1810 H   0  0  0  0  0  0  0  0  0  0  0  0
  1  2  1  0
  1 24  1  0
  1 25  1  0
  1 26  1  0
  2  3  2  0
  2  4  1  0
  4  5  1  0
  5  6  1  0
  5  7  1  0
  5 23  1  0
  7  8  1  0
  7  9  1  0
 10  7  1  6
 10 11  1  0
 10 15  1  0
 10 19  1  0
 11 12  1  0
 11 13  1  0
 11 14  1  0
 15 16  1  0
 15 17  1  0
 15 18  1  0
 19 20  1  0
 19 21  1  0
 19 22  1  0
M  CHG  1  10   1
M  END
$$$$

     RDKit          3D

 26 25  0  0  0  0  0  0  0  0999 V2000
   -3.6060   -0.1909    0.4996 C   0  0  0  0  0  0  0  0  0  0  0  0
   -2.2191   -0.2068   -0.0408 C   0  0  0  0  0  0  0  0  0  0  0  0
   -1.6372   -1.1467   -0.5165 O   0  0  0  0  0  0  0  0  0  0  0  0
   -1.6257    1.0080    0.0631 O   0  0  0  0  0  0  0  0  0  0  0  0
   -0.3301    1.1288   -0.4929 C   0  0  0  0  0  0  0  0  0  0  0  0
   -0.2476    2.1667   -0.8186 H   0  0  0  0  0  0  0  0  0  0  0  0
    0.7528    0.7850    0.5530 C   0  0  0  0  0  0  0  0  0  0  0  0
    0.2575    0.2909    1.3933 H   0  0  0  0  0  0  0  0  0  0  0  0
    1.1977    1.7099    0.9248 H   0  0  0  0  0  0  0  0  0  0  0  0
    1.8574   -0.1029    0.0896 N   0  0  1  0  0  0  0  0  0  0  0  0
    1.3736   -1.4868   -0.0947 C   0  0  0  0  0  0  0  0  0  0  0  0
    2.1306   -2.0831   -0.5989 H   0  0  0  0  0  0  0  0  0  0  0  0
    0.4515   -1.5121   -0.6756 H   0  0  0  0  0  0  0  0  0  0  0  0
    1.1622   -1.9376    0.8733 H   0  0  0  0  0  0  0  0  0  0  0  0
    2.4463    0.3975   -1.1671 C   0  0  0  0  0  0  0  0  0  0  0  0
    1.7595    0.2659   -1.9991 H   0  0  0  0  0  0  0  0  0  0  0  0
    3.3593   -0.1523   -1.3900 H   0  0  0  0  0  0  0  0  0  0  0  0
    2.6895    1.4544   -1.0742 H   0  0  0  0  0  0  0  0  0  0  0  0
    2.9081   -0.1062    1.1280 C   0  0  0  0  0  0  0  0  0  0  0  0
    2.4876   -0.3815    2.0935 H   0  0  0  0  0  0  0  0  0  0  0  0
    3.3643    0.8787    1.2131 H   0  0  0  0  0  0  0  0  0  0  0  0
    3.6821   -0.8270    0.8698 H   0  0  0  0  0  0  0  0  0  0  0  0
   -0.2742    0.4668   -1.3640 H   0  0  0  0  0  0  0  0  0  0  0  0
   -4.1741    0.6051    0.0243 H   0  0  0  0  0  0  0  0  0  0  0  0
   -3.5798    0.0169    1.5674 H   0  0  0  0  0  0  0  0  0  0  0  0
   -4.0812   -1.1507    0.3228 H   0  0  0  0  0  0  0  0  0  0  0  0
  1  2  1  0
  1 24  1  0
  1 25  1  0
  1 26  1  0
  2  3  2  0
  2  4  1  0
  4  5  1  0
  5  6  1  0
  5  7  1  0
  5 23  1  0
  7  8  1  0
  7  9  1  0
 10  7  1  1
 10 11  1  0
 10 15  1  0
 10 19  1  0
 11 12  1  0
 11 13  1  0
 11 14  1  0
 15 16  1  0
 15 17  1  0
 15 18  1  0
 19 20  1  0
 19 21  1  0
 19 22  1  0
M  CHG  1  10   1
M  END
$$$$

     RDKit          3D

 26 25  0  0  0  0  0  0  0  0999 V2000
   -3.6322   -0.4119   -0.6408 C   0  0  0  0  0  0  0  0  0  0  0  0
   -2.3939    0.1518   -0.0336 C   0  0  0  0  0  0  0  0  0  0  0  0
   -2.1608    1.3007    0.2191 O   0  0  0  0  0  0  0  0  0  0  0  0
   -1.4755   -0.8225    0.2268 O   0  0  0  0  0  0  0  0  0  0  0  0
   -0.3288   -0.3983    0.9399 C   0  0  0  0  0  0  0  0  0  0  0  0
    0.1546   -1.3232    1.2543 H   0  0  0  0  0  0  0  0  0  0  0  0
    0.5776    0.5005    0.0734 C   0  0  0  0  0  0  0  0  0  0  0  0
    0.6149    1.5004    0.5085 H   0  0  0  0  0  0  0  0  0  0  0  0
    0.1107    0.5913   -0.9105 H   0  0  0  0  0  0  0  0  0  0  0  0
    1.9757    0.0250   -0.1298 N   0  0  1  0  0  0  0  0  0  0  0  0
    1.9898   -1.2626   -0.8486 C   0  0  0  0  0  0  0  0  0  0  0  0
    1.5080   -1.1542   -1.8187 H   0  0  0  0  0  0  0  0  0  0  0  0
    1.4607   -2.0290   -0.2876 H   0  0  0  0  0  0  0  0  0  0  0  0
    3.0157   -1.5922   -1.0025 H   0  0  0  0  0  0  0  0  0  0  0  0
    2.6830    1.0310   -0.9479 C   0  0  0  0  0  0  0  0  0  0  0  0
    2.1805    1.1658   -1.9040 H   0  0  0  0  0  0  0  0  0  0  0  0
    3.7058    0.7085   -1.1357 H   0  0  0  0  0  0  0  0  0  0  0  0
    2.7098    1.9893   -0.4324 H   0  0  0  0  0  0  0  0  0  0  0  0
    2.6759   -0.1064    1.1613 C   0  0  0  0  0  0  0  0  0  0  0  0
    2.2190   -0.8771    1.7768 H   0  0  0  0  0  0  0  0  0  0  0  0
    2.6403    0.8368    1.7034 H   0  0  0  0  0  0  0  0  0  0  0  0
    3.7181   -0.3731    0.9935 H   0  0  0  0  0  0  0  0  0  0  0  0
   -0.6512    0.1558    1.8281 H   0  0  0  0  0  0  0  0  0  0  0  0
   -3.4461   -1.4024   -1.0433 H   0  0  0  0  0  0  0  0  0  0  0  0
   -4.0075    0.2600   -1.4079 H   0  0  0  0  0  0  0  0  0  0  0  0
   -4.3925   -0.4833    0.1360 H   0  0  0  0  0  0  0  0  0  0  0  0
  1  2  1  0
  1 24  1  0
  1 25  1  0
  1 26  1  0
  2  3  2  0
  2  4  1  0
  4  5  1  0
  5  6  1  0
  5  7  1  0
  5 23  1  0
  7  8  1  0
  7  9  1  0
 10  7  1  1
 10 11  1  0
 10 15  1  0
 10 19  1  0
 11 12  1  0
 11 13  1  0
 11 14  1  0
 15 16  1  0
 15 17  1  0
 15 18  1  0
 19 20  1  0
 19 21  1  0
 19 22  1  0
M  CHG  1  10   1
M  END
$$$$
