
     RDKit          3D

 10  9  0  0  0  0  0  0  0  0999 V2000
    1.8277    0.5888   -0.0141 C   0  0  0  0  0  0  0  0  0  0  0  0
    0.4960   -0.1153    0.0032 C   0  0  0  0  0  0  0  0  0  0  0  0
    0.3304   -1.3212    0.0047 O   0  0  0  0  0  0  0  0  0  0  0  0
   -0.5672    0.7115    0.0441 N   0  0  0  0  0  0  0  0  0  0  0  0
   -0.5755    1.7073   -0.0932 H   0  0  0  0  0  0  0  0  0  0  0  0
   -1.8453    0.1441   -0.0230 O   0  0  0  0  0  0  0  0  0  0  0  0
   -1.6520   -0.8172   -0.0189 H   0  0  0  0  0  0  0  0  0  0  0  0
    2.6070   -0.1252    0.2350 H   0  0  0  0  0  0  0  0  0  0  0  0
    1.8409    1.4110    0.6961 H   0  0  0  0  0  0  0  0  0  0  0  0
    2.0185    0.9801   -1.0116 H   0  0  0  0  0  0  0  0  0  0  0  0
  1  2  1  0
  1  8  1  0
  1  9  1  0
  1 10  1  0
  2  3  2  0
  2  4  1  0
  4  5  1  0
  4  6  1  0
  6  7  1  0
M  END
$$$$

     RDKit          3D

 10  9  0  0  0  0  0  0  0  0999 V2000
    1.8291    0.5862   -0.0154 C   0  0  0  0  0  0  0  0  0  0  0  0
    0.4954   -0.1125    0.0051 C   0  0  0  0  0  0  0  0  0  0  0  0
    0.3295   -1.3186    0.0051 O   0  0  0  0  0  0  0  0  0  0  0  0
   -0.5687    0.7131    0.0473 N   0  0  0  0  0  0  0  0  0  0  0  0
   -0.5803    1.7079   -0.0972 H   0  0  0  0  0  0  0  0  0  0  0  0
   -1.8447    0.1417   -0.0252 O   0  0  0  0  0  0  0  0  0  0  0  0
   -1.6479   -0.8191   -0.0216 H   0  0  0  0  0  0  0  0  0  0  0  0
    2.1222    0.7594   -1.0495 H   0  0  0  0  0  0  0  0  0  0  0  0
    2.5723   -0.0584    0.4451 H   0  0  0  0  0  0  0  0  0  0  0  0
    1.7874    1.5374    0.5070 H   0  0  0  0  0  0  0  0  0  0  0  0
  1  2  1  0
  1  8  1  0
  1  9  1  0
  1 10  1  0
  2  3  2  0
  2  4  1  0
  4  5  1  0
  4  6  1  0
  6  7  1  0
M  END
$$$$

     RDKit          3D

 10  9  0  0  0  0  0  0  0  0999 V2000
   -1.8318   -0.5831   -0.0002 C   0  0  0  0  0  0  0  0  0  0  0  0
   -0.4951    0.1082   -0.0021 C   0  0  0  0  0  0  0  0  0  0  0  0
   -0.3283    1.3151    0.0002 O   0  0  0  0  0  0  0  0  0  0  0  0
    0.5698   -0.7134    0.0037 N   0  0  0  0  0  0  0  0  0  0  0  0
    0.5913   -1.7174   -0.0202 H   0  0  0  0  0  0  0  0  0  0  0  0
    1.8456   -0.1391   -0.0007 O   0  0  0  0  0  0  0  0  0  0  0  0
    1.6434    0.8210   -0.0023 H   0  0  0  0  0  0  0  0  0  0  0  0
   -1.7322   -1.6630   -0.0456 H   0  0  0  0  0  0  0  0  0  0  0  0
   -2.4108   -0.2312   -0.8510 H   0  0  0  0  0  0  0  0  0  0  0  0
   -2.3683   -0.3028    0.9036 H   0  0  0  0  0  0  0  0  0  0  0  0
  1  2  1  0
  1  8  1  0
  1  9  1  0
  1 10  1  0
  2  3  2  0
  2  4  1  0
  4  5  1  0
  4  6  1  0
  6  7  1  0
M  END
$$$$

     RDKit          3D

 10  9  0  0  0  0  0  0  0  0999 V2000
    0.5333    1.4527   -0.0086 C   0  0  0  0  0  0  0  0  0  0  0  0
    0.5926   -0.0523    0.0035 C   0  0  0  0  0  0  0  0  0  0  0  0
    1.6039   -0.7137    0.0259 O   0  0  0  0  0  0  0  0  0  0  0  0
   -0.6175   -0.6714   -0.0901 N   0  0  0  0  0  0  0  0  0  0  0  0
   -0.6663   -1.6683    0.0810 H   0  0  0  0  0  0  0  0  0  0  0  0
   -1.8266   -0.0027    0.1033 O   0  0  0  0  0  0  0  0  0  0  0  0
   -2.1836    0.2323   -0.7682 H   0  0  0  0  0  0  0  0  0  0  0  0
    1.5264    1.8509    0.1725 H   0  0  0  0  0  0  0  0  0  0  0  0
   -0.1566    1.8001    0.7568 H   0  0  0  0  0  0  0  0  0  0  0  0
    0.1792    1.7985   -0.9783 H   0  0  0  0  0  0  0  0  0  0  0  0
  1  2  1  0
  1  8  1  0
  1  9  1  0
  1 10  1  0
  2  3  2  0
  2  4  1  0
  4  5  1  0
  4  6  1  0
  6  7  1  0
M  END
$$$$

     RDKit          3D

 10  9  0  0  0  0  0  0  0  0999 V2000
   -0.6101   -1.4465   -0.0102 C   0  0  0  0  0  0  0  0  0  0  0  0
   -0.5874    0.0583   -0.0010 C   0  0  0  0  0  0  0  0  0  0  0  0
   -1.5718    0.7614    0.0195 O   0  0  0  0  0  0  0  0  0  0  0  0
    0.6392    0.6450   -0.0710 N   0  0  0  0  0  0  0  0  0  0  0  0
    0.6970    1.6409    0.1071 H   0  0  0  0  0  0  0  0  0  0  0  0
    1.8450   -0.0367    0.0930 O   0  0  0  0  0  0  0  0  0  0  0  0
    2.2600   -0.1269   -0.7803 H   0  0  0  0  0  0  0  0  0  0  0  0
   -0.9231   -1.7869    0.9749 H   0  0  0  0  0  0  0  0  0  0  0  0
    0.3654   -1.8650   -0.2355 H   0  0  0  0  0  0  0  0  0  0  0  0
   -1.3483   -1.7870   -0.7316 H   0  0  0  0  0  0  0  0  0  0  0  0
  1  2  1  0
  1  8  1  0
  1  9  1  0
  1 10  1  0
  2  3  2  0
  2  4  1  0
  4  5  1  0
  4  6  1  0
  6  7  1  0
M  END
$$$$
