
     RDKit          3D

 23 25  0  0  0  0  0  0  0  0999 V2000
   -1.8177   -2.5003   -0.0009 C   0  0  0  0  0  0  0  0  0  0  0  0
   -1.8465   -1.0194   -0.0001 C   0  0  0  0  0  0  0  0  0  0  0  0
   -2.9645   -0.3439   -0.0002 N   0  0  0  0  0  0  0  0  0  0  0  0
   -2.7004    0.9612    0.0002 N   0  0  0  0  0  0  0  0  0  0  0  0
   -1.3985    1.1034    0.0004 C   0  0  0  0  0  0  0  0  0  0  0  0
   -0.6262    2.2883    0.0002 C   0  0  0  0  0  0  0  0  0  0  0  0
    0.7198    2.1854   -0.0003 C   0  0  0  0  0  0  0  0  0  0  0  0
    1.3631    0.9058   -0.0003 C   0  0  0  0  0  0  0  0  0  0  0  0
    2.7602    0.8031   -0.0007 C   0  0  0  0  0  0  0  0  0  0  0  0
    3.3827   -0.4220   -0.0004 C   0  0  0  0  0  0  0  0  0  0  0  0
    2.6178   -1.5837    0.0005 C   0  0  0  0  0  0  0  0  0  0  0  0
    1.2411   -1.5176    0.0009 C   0  0  0  0  0  0  0  0  0  0  0  0
    0.5946   -0.2811    0.0003 C   0  0  0  0  0  0  0  0  0  0  0  0
   -0.7816   -0.1477    0.0004 N   0  0  0  0  0  0  0  0  0  0  0  0
    0.6723   -2.4300    0.0018 H   0  0  0  0  0  0  0  0  0  0  0  0
    3.1025   -2.5482    0.0010 H   0  0  0  0  0  0  0  0  0  0  0  0
    4.4601   -0.4856   -0.0008 H   0  0  0  0  0  0  0  0  0  0  0  0
    3.3425    1.7127   -0.0012 H   0  0  0  0  0  0  0  0  0  0  0  0
    1.3457    3.0648   -0.0009 H   0  0  0  0  0  0  0  0  0  0  0  0
   -1.1507    3.2285    0.0004 H   0  0  0  0  0  0  0  0  0  0  0  0
   -2.8494   -2.8422   -0.0021 H   0  0  0  0  0  0  0  0  0  0  0  0
   -1.3195   -2.8854   -0.8904 H   0  0  0  0  0  0  0  0  0  0  0  0
   -1.3211   -2.8865    0.8890 H   0  0  0  0  0  0  0  0  0  0  0  0
  1  2  1  0
  1 21  1  0
  1 22  1  0
  1 23  1  0
  2  3  2  0
  2 14  1  0
  3  4  1  0
  4  5  2  0
  5  6  1  0
  5 14  1  0
  6  7  2  0
  6 20  1  0
  7  8  1  0
  7 19  1  0
  8  9  1  0
  8 13  2  0
  9 10  2  0
  9 18  1  0
 10 11  1  0
 10 17  1  0
 11 12  2  0
 11 16  1  0
 12 13  1  0
 12 15  1  0
 13 14  1  0
M  END
$$$$
