
     RDKit          3D

 13 12  0  0  0  0  0  0  0  0999 V2000
    1.7473   -1.2207    0.0410 C   0  0  0  0  0  0  0  0  0  0  0  0
    1.2707    0.1940   -0.0746 C   0  0  0  0  0  0  0  0  0  0  0  0
    1.7956    1.1384    0.4482 O   0  0  0  0  0  0  0  0  0  0  0  0
    0.0032    0.3498   -0.9198 C   0  0  0  0  0  0  0  0  0  0  0  0
   -1.1751   -0.1150   -0.0953 C   0  0  0  0  0  0  0  0  0  0  0  0
   -1.3556   -1.2433    0.2773 O   0  0  0  0  0  0  0  0  0  0  0  0
   -2.0006    0.8890    0.1926 O   0  0  0  0  0  0  0  0  0  0  0  0
   -2.7385    0.5873    0.7466 H   0  0  0  0  0  0  0  0  0  0  0  0
   -0.1401    1.3952   -1.1887 H   0  0  0  0  0  0  0  0  0  0  0  0
    0.0792   -0.2810   -1.8048 H   0  0  0  0  0  0  0  0  0  0  0  0
    0.9073   -1.8612    0.3054 H   0  0  0  0  0  0  0  0  0  0  0  0
    2.5338   -1.2979    0.7866 H   0  0  0  0  0  0  0  0  0  0  0  0
    2.1319   -1.5528   -0.9216 H   0  0  0  0  0  0  0  0  0  0  0  0
  1  2  1  0
  1 11  1  0
  1 12  1  0
  1 13  1  0
  2  3  2  0
  2  4  1  0
  4  5  1  0
  4  9  1  0
  4 10  1  0
  5  6  2  0
  5  7  1  0
  7  8  1  0
M  END
$$$$

     RDKit          3D

 13 12  0  0  0  0  0  0  0  0999 V2000
   -1.7610   -1.2251   -0.0954 C   0  0  0  0  0  0  0  0  0  0  0  0
   -1.2537    0.1773    0.0759 C   0  0  0  0  0  0  0  0  0  0  0  0
   -1.7603    1.1424   -0.4243 O   0  0  0  0  0  0  0  0  0  0  0  0
   -0.0095    0.2889    0.9614 C   0  0  0  0  0  0  0  0  0  0  0  0
    1.2150    0.0714    0.1027 C   0  0  0  0  0  0  0  0  0  0  0  0
    1.9675    0.9257   -0.2666 O   0  0  0  0  0  0  0  0  0  0  0  0
    1.3719   -1.2226   -0.2180 O   0  0  0  0  0  0  0  0  0  0  0  0
    2.1539   -1.3380   -0.7805 H   0  0  0  0  0  0  0  0  0  0  0  0
    0.0442    1.2912    1.3847 H   0  0  0  0  0  0  0  0  0  0  0  0
   -0.0373   -0.4740    1.7374 H   0  0  0  0  0  0  0  0  0  0  0  0
   -2.2329   -1.5419    0.8336 H   0  0  0  0  0  0  0  0  0  0  0  0
   -0.9361   -1.9013   -0.3031 H   0  0  0  0  0  0  0  0  0  0  0  0
   -2.4960   -1.2649   -0.8948 H   0  0  0  0  0  0  0  0  0  0  0  0
  1  2  1  0
  1 11  1  0
  1 12  1  0
  1 13  1  0
  2  3  2  0
  2  4  1  0
  4  5  1  0
  4  9  1  0
  4 10  1  0
  5  6  2  0
  5  7  1  0
  7  8  1  0
M  END
$$$$

     RDKit          3D

 13 12  0  0  0  0  0  0  0  0999 V2000
   -1.1501   -1.3521    0.5466 C   0  0  0  0  0  0  0  0  0  0  0  0
   -1.3225    0.0072   -0.0674 C   0  0  0  0  0  0  0  0  0  0  0  0
   -2.3408    0.6387   -0.0197 O   0  0  0  0  0  0  0  0  0  0  0  0
   -0.0870    0.5435   -0.7965 C   0  0  0  0  0  0  0  0  0  0  0  0
    1.1918    0.2543   -0.0557 C   0  0  0  0  0  0  0  0  0  0  0  0
    1.6533    0.9214    0.8273 O   0  0  0  0  0  0  0  0  0  0  0  0
    1.7745   -0.8720   -0.4924 O   0  0  0  0  0  0  0  0  0  0  0  0
    2.5940   -1.0461   -0.0028 H   0  0  0  0  0  0  0  0  0  0  0  0
   -0.0501    0.0545   -1.7716 H   0  0  0  0  0  0  0  0  0  0  0  0
   -0.2041    1.6202   -0.9228 H   0  0  0  0  0  0  0  0  0  0  0  0
   -2.1186   -1.7717    0.8059 H   0  0  0  0  0  0  0  0  0  0  0  0
   -0.5616   -1.2441    1.4576 H   0  0  0  0  0  0  0  0  0  0  0  0
   -0.6150   -2.0173   -0.1260 H   0  0  0  0  0  0  0  0  0  0  0  0
  1  2  1  0
  1 11  1  0
  1 12  1  0
  1 13  1  0
  2  3  2  0
  2  4  1  0
  4  5  1  0
  4  9  1  0
  4 10  1  0
  5  6  2  0
  5  7  1  0
  7  8  1  0
M  END
$$$$

     RDKit          3D

 13 12  0  0  0  0  0  0  0  0999 V2000
   -1.2317   -1.2528    0.7040 C   0  0  0  0  0  0  0  0  0  0  0  0
   -1.3484    0.1038    0.0741 C   0  0  0  0  0  0  0  0  0  0  0  0
   -2.3731    0.5544   -0.3596 O   0  0  0  0  0  0  0  0  0  0  0  0
   -0.0517    0.9118    0.0428 C   0  0  0  0  0  0  0  0  0  0  0  0
    1.1936    0.0909   -0.1795 C   0  0  0  0  0  0  0  0  0  0  0  0
    1.3478   -0.7394   -1.0320 O   0  0  0  0  0  0  0  0  0  0  0  0
    2.1495    0.4070    0.7024 O   0  0  0  0  0  0  0  0  0  0  0  0
    2.9576   -0.1040    0.5346 H   0  0  0  0  0  0  0  0  0  0  0  0
   -0.1318    1.6498   -0.7592 H   0  0  0  0  0  0  0  0  0  0  0  0
    0.0447    1.4456    0.9909 H   0  0  0  0  0  0  0  0  0  0  0  0
   -2.2183   -1.6684    0.8899 H   0  0  0  0  0  0  0  0  0  0  0  0
   -0.6613   -1.2025    1.6284 H   0  0  0  0  0  0  0  0  0  0  0  0
   -0.6982   -1.9021    0.0105 H   0  0  0  0  0  0  0  0  0  0  0  0
  1  2  1  0
  1 11  1  0
  1 12  1  0
  1 13  1  0
  2  3  2  0
  2  4  1  0
  4  5  1  0
  4  9  1  0
  4 10  1  0
  5  6  2  0
  5  7  1  0
  7  8  1  0
M  END
$$$$

     RDKit          3D

 13 12  0  0  0  0  0  0  0  0999 V2000
   -2.6015   -0.4350   -0.2789 C   0  0  0  0  0  0  0  0  0  0  0  0
   -1.2381    0.0711    0.1123 C   0  0  0  0  0  0  0  0  0  0  0  0
   -1.0595    1.0937    0.7124 O   0  0  0  0  0  0  0  0  0  0  0  0
   -0.1021   -0.8465   -0.3391 C   0  0  0  0  0  0  0  0  0  0  0  0
    1.2475   -0.2272   -0.0561 C   0  0  0  0  0  0  0  0  0  0  0  0
    1.9896   -0.5559    0.8260 O   0  0  0  0  0  0  0  0  0  0  0  0
    1.5228    0.7492   -0.9233 O   0  0  0  0  0  0  0  0  0  0  0  0
    2.3581    1.1857   -0.6939 H   0  0  0  0  0  0  0  0  0  0  0  0
   -0.1812   -1.7922    0.1989 H   0  0  0  0  0  0  0  0  0  0  0  0
   -0.2046   -1.0262   -1.4097 H   0  0  0  0  0  0  0  0  0  0  0  0
   -3.3701    0.1406    0.2295 H   0  0  0  0  0  0  0  0  0  0  0  0
   -2.7066   -1.4897   -0.0401 H   0  0  0  0  0  0  0  0  0  0  0  0
   -2.7268   -0.3158   -1.3537 H   0  0  0  0  0  0  0  0  0  0  0  0
  1  2  1  0
  1 11  1  0
  1 12  1  0
  1 13  1  0
  2  3  2  0
  2  4  1  0
  4  5  1  0
  4  9  1  0
  4 10  1  0
  5  6  2  0
  5  7  1  0
  7  8  1  0
M  END
$$$$

     RDKit          3D

 13 12  0  0  0  0  0  0  0  0999 V2000
   -2.4744   -0.6137    0.2246 C   0  0  0  0  0  0  0  0  0  0  0  0
   -1.2284    0.2066    0.0356 C   0  0  0  0  0  0  0  0  0  0  0  0
   -1.1516    1.1330   -0.7227 O   0  0  0  0  0  0  0  0  0  0  0  0
   -0.0572   -0.2398    0.9115 C   0  0  0  0  0  0  0  0  0  0  0  0
    1.2511   -0.1047    0.1633 C   0  0  0  0  0  0  0  0  0  0  0  0
    2.1526    0.6285    0.4521 O   0  0  0  0  0  0  0  0  0  0  0  0
    1.2869   -0.9349   -0.8846 O   0  0  0  0  0  0  0  0  0  0  0  0
    2.1092   -0.8162   -1.3854 H   0  0  0  0  0  0  0  0  0  0  0  0
   -0.0206    0.4039    1.7922 H   0  0  0  0  0  0  0  0  0  0  0  0
   -0.1913   -1.2766    1.2179 H   0  0  0  0  0  0  0  0  0  0  0  0
   -2.3022   -1.6113   -0.1759 H   0  0  0  0  0  0  0  0  0  0  0  0
   -3.3077   -0.1571   -0.3024 H   0  0  0  0  0  0  0  0  0  0  0  0
   -2.7083   -0.7074    1.2824 H   0  0  0  0  0  0  0  0  0  0  0  0
  1  2  1  0
  1 11  1  0
  1 12  1  0
  1 13  1  0
  2  3  2  0
  2  4  1  0
  4  5  1  0
  4  9  1  0
  4 10  1  0
  5  6  2  0
  5  7  1  0
  7  8  1  0
M  END
$$$$
