
     RDKit          3D

 17 17  0  0  0  0  0  0  0  0999 V2000
   -2.8205   -1.4135    0.0632 N   0  0  0  0  0  0  0  0  0  0  0  0
   -1.8262   -0.4660   -0.0066 C   0  0  0  0  0  0  0  0  0  0  0  0
   -0.4852   -0.8427   -0.0020 C   0  0  0  0  0  0  0  0  0  0  0  0
    0.5188    0.1180   -0.0007 C   0  0  0  0  0  0  0  0  0  0  0  0
    0.1973    1.4737   -0.0055 C   0  0  0  0  0  0  0  0  0  0  0  0
   -1.1341    1.8484   -0.0121 C   0  0  0  0  0  0  0  0  0  0  0  0
   -2.1364    0.8972   -0.0140 C   0  0  0  0  0  0  0  0  0  0  0  0
   -3.1736    1.2011   -0.0197 H   0  0  0  0  0  0  0  0  0  0  0  0
   -1.3968    2.8960   -0.0187 H   0  0  0  0  0  0  0  0  0  0  0  0
    0.9819    2.2121   -0.0068 H   0  0  0  0  0  0  0  0  0  0  0  0
    1.9202   -0.3470   -0.0014 C   0  0  0  0  0  0  0  0  0  0  0  0
    2.2638   -1.5041   -0.0317 O   0  0  0  0  0  0  0  0  0  0  0  0
    2.8194    0.6519    0.0338 O   0  0  0  0  0  0  0  0  0  0  0  0
    3.7147    0.2796    0.0323 H   0  0  0  0  0  0  0  0  0  0  0  0
   -0.2072   -1.8862    0.0022 H   0  0  0  0  0  0  0  0  0  0  0  0
   -3.7449   -1.1302   -0.2158 H   0  0  0  0  0  0  0  0  0  0  0  0
   -2.5664   -2.3558   -0.1824 H   0  0  0  0  0  0  0  0  0  0  0  0
  1  2  1  0
  1 16  1  0
  1 17  1  0
  2  3  2  0
  2  7  1  0
  3  4  1  0
  3 15  1  0
  4  5  2  0
  4 11  1  0
  5  6  1  0
  5 10  1  0
  6  7  2  0
  6  9  1  0
  7  8  1  0
 11 12  2  0
 11 13  1  0
 13 14  1  0
M  END
$$$$

     RDKit          3D

 17 17  0  0  0  0  0  0  0  0999 V2000
   -2.7613   -1.4721    0.0561 N   0  0  0  0  0  0  0  0  0  0  0  0
   -1.7979   -0.4912   -0.0096 C   0  0  0  0  0  0  0  0  0  0  0  0
   -0.4452   -0.8269   -0.0054 C   0  0  0  0  0  0  0  0  0  0  0  0
    0.5232    0.1691    0.0003 C   0  0  0  0  0  0  0  0  0  0  0  0
    0.1527    1.5129    0.0006 C   0  0  0  0  0  0  0  0  0  0  0  0
   -1.1886    1.8463   -0.0046 C   0  0  0  0  0  0  0  0  0  0  0  0
   -2.1564    0.8599   -0.0110 C   0  0  0  0  0  0  0  0  0  0  0  0
   -3.2040    1.1259   -0.0155 H   0  0  0  0  0  0  0  0  0  0  0  0
   -1.4865    2.8842   -0.0068 H   0  0  0  0  0  0  0  0  0  0  0  0
    0.9229    2.2674    0.0029 H   0  0  0  0  0  0  0  0  0  0  0  0
    1.9615   -0.1631    0.0019 C   0  0  0  0  0  0  0  0  0  0  0  0
    2.8577    0.6450    0.0149 O   0  0  0  0  0  0  0  0  0  0  0  0
    2.2108   -1.4861   -0.0144 O   0  0  0  0  0  0  0  0  0  0  0  0
    3.1696   -1.6306   -0.0093 H   0  0  0  0  0  0  0  0  0  0  0  0
   -0.1478   -1.8642   -0.0045 H   0  0  0  0  0  0  0  0  0  0  0  0
   -2.4795   -2.4026   -0.2039 H   0  0  0  0  0  0  0  0  0  0  0  0
   -3.6942   -1.2147   -0.2202 H   0  0  0  0  0  0  0  0  0  0  0  0
  1  2  1  0
  1 16  1  0
  1 17  1  0
  2  3  2  0
  2  7  1  0
  3  4  1  0
  3 15  1  0
  4  5  2  0
  4 11  1  0
  5  6  1  0
  5 10  1  0
  6  7  2  0
  6  9  1  0
  7  8  1  0
 11 12  2  0
 11 13  1  0
 13 14  1  0
M  END
$$$$
