
     RDKit          3D

 32 34  0  0  0  0  0  0  0  0999 V2000
   -4.5039   -1.6405   -0.0101 O   0  0  0  0  0  0  0  0  0  0  0  0
   -3.8966   -0.6044   -0.0050 C   0  0  0  0  0  0  0  0  0  0  0  0
   -4.5112    0.5896   -0.0029 O   0  0  0  0  0  0  0  0  0  0  0  0
   -3.8459    1.2973    0.0092 H   0  0  0  0  0  0  0  0  0  0  0  0
   -2.4251   -0.5089    0.0003 C   0  0  0  0  0  0  0  0  0  0  0  0
   -1.8296    0.6815   -0.0020 N   0  0  0  0  0  0  0  0  0  0  0  0
   -0.5240    0.4491    0.0082 N   0  0  0  0  0  0  0  0  0  0  0  0
   -0.2475   -0.8875    0.0101 C   0  0  0  0  0  0  0  0  0  0  0  0
   -1.4671   -1.5362    0.0108 C   0  0  0  0  0  0  0  0  0  0  0  0
   -1.6556   -2.5886   -0.0065 H   0  0  0  0  0  0  0  0  0  0  0  0
    1.0902   -1.4608   -0.0754 C   0  0  0  0  0  0  0  0  0  0  0  0
    1.4074   -2.5810    0.6894 C   0  0  0  0  0  0  0  0  0  0  0  0
    2.6617   -3.1549    0.5977 C   0  0  0  0  0  0  0  0  0  0  0  0
    3.6088   -2.6237   -0.2619 C   0  0  0  0  0  0  0  0  0  0  0  0
    3.2944   -1.5194   -1.0371 C   0  0  0  0  0  0  0  0  0  0  0  0
    2.0432   -0.9395   -0.9489 C   0  0  0  0  0  0  0  0  0  0  0  0
    1.7984   -0.0882   -1.5675 H   0  0  0  0  0  0  0  0  0  0  0  0
    4.0261   -1.1099   -1.7176 H   0  0  0  0  0  0  0  0  0  0  0  0
    4.5883   -3.0724   -0.3322 H   0  0  0  0  0  0  0  0  0  0  0  0
    2.9006   -4.0197    1.1987 H   0  0  0  0  0  0  0  0  0  0  0  0
    0.6682   -2.9891    1.3626 H   0  0  0  0  0  0  0  0  0  0  0  0
    0.3702    1.5298    0.0891 C   0  0  0  0  0  0  0  0  0  0  0  0
    0.0880    2.6876   -0.6262 C   0  0  0  0  0  0  0  0  0  0  0  0
    0.9471    3.7679   -0.5466 C   0  0  0  0  0  0  0  0  0  0  0  0
    2.0827    3.6972    0.2431 C   0  0  0  0  0  0  0  0  0  0  0  0
    2.3508    2.5478    0.9687 C   0  0  0  0  0  0  0  0  0  0  0  0
    1.4954    1.4636    0.9032 C   0  0  0  0  0  0  0  0  0  0  0  0
    1.6936    0.5755    1.4831 H   0  0  0  0  0  0  0  0  0  0  0  0
    3.2265    2.4961    1.5975 H   0  0  0  0  0  0  0  0  0  0  0  0
    2.7549    4.5397    0.2996 H   0  0  0  0  0  0  0  0  0  0  0  0
    0.7301    4.6656   -1.1053 H   0  0  0  0  0  0  0  0  0  0  0  0
   -0.8015    2.7249   -1.2357 H   0  0  0  0  0  0  0  0  0  0  0  0
  1  2  2  0
  2  3  1  0
  2  5  1  0
  3  4  1  0
  5  6  2  0
  5  9  1  0
  6  7  1  0
  7  8  1  0
  7 22  1  0
  8  9  2  0
  8 11  1  0
  9 10  1  0
 11 12  2  0
 11 16  1  0
 12 13  1  0
 12 21  1  0
 13 14  2  0
 13 20  1  0
 14 15  1  0
 14 19  1  0
 15 16  2  0
 15 18  1  0
 16 17  1  0
 22 23  2  0
 22 27  1  0
 23 24  1  0
 23 32  1  0
 24 25  2  0
 24 31  1  0
 25 26  1  0
 25 30  1  0
 26 27  2  0
 26 29  1  0
 27 28  1  0
M  END
$$$$
