
     RDKit          3D

 40 43  0  0  0  0  0  0  0  0999 V2000
   -2.4719   -0.0973   -1.7634 C   0  0  0  0  0  0  0  0  0  0  0  0
   -1.4731   -0.4668   -1.9798 H   0  0  0  0  0  0  0  0  0  0  0  0
   -3.1771   -0.9103   -1.9177 H   0  0  0  0  0  0  0  0  0  0  0  0
   -2.7202    0.6968   -2.4637 H   0  0  0  0  0  0  0  0  0  0  0  0
   -2.5501    0.4453   -0.3266 C   0  0  1  0  0  0  0  0  0  0  0  0
   -4.0275    0.4218    0.0241 C   0  0  0  0  0  0  0  0  0  0  0  0
   -4.8314    1.2910   -0.1795 O   0  0  0  0  0  0  0  0  0  0  0  0
   -4.3168   -0.9213    0.6794 C   0  0  0  0  0  0  0  0  0  0  0  0
   -5.1011   -1.4495    0.1371 H   0  0  0  0  0  0  0  0  0  0  0  0
   -4.6992   -0.7223    1.6827 H   0  0  0  0  0  0  0  0  0  0  0  0
   -2.9822   -1.6755    0.7301 C   0  0  0  0  0  0  0  0  0  0  0  0
   -2.8669   -2.3180   -0.1415 H   0  0  0  0  0  0  0  0  0  0  0  0
   -2.8907   -2.2925    1.6228 H   0  0  0  0  0  0  0  0  0  0  0  0
   -1.9652   -0.5366    0.7100 C   0  0  1  0  0  0  0  0  0  0  0  0
   -0.5199   -0.7543    0.3930 C   0  0  0  0  0  0  0  0  0  0  0  0
    0.0123   -1.8724   -0.0709 C   0  0  0  0  0  0  0  0  0  0  0  0
    1.4419   -2.0102   -0.4823 C   0  0  0  0  0  0  0  0  0  0  0  0
    2.2875   -0.8128   -0.1548 C   0  0  0  0  0  0  0  0  0  0  0  0
    3.6595   -0.9036   -0.3424 C   0  0  0  0  0  0  0  0  0  0  0  0
    4.4957    0.1608   -0.0402 C   0  0  0  0  0  0  0  0  0  0  0  0
    3.9483    1.3297    0.4743 C   0  0  0  0  0  0  0  0  0  0  0  0
    2.5838    1.4171    0.6624 C   0  0  0  0  0  0  0  0  0  0  0  0
    1.7354    0.3636    0.3418 C   0  0  0  0  0  0  0  0  0  0  0  0
    0.2532    0.5297    0.5523 C   0  0  1  0  0  0  0  0  0  0  0  0
    0.0939    0.8993    1.5757 H   0  0  0  0  0  0  0  0  0  0  0  0
   -0.3247    1.5936   -0.4087 C   0  0  0  0  0  0  0  0  0  0  0  0
   -0.1183    1.2883   -1.4355 H   0  0  0  0  0  0  0  0  0  0  0  0
    0.1842    2.5442   -0.2420 H   0  0  0  0  0  0  0  0  0  0  0  0
   -1.8306    1.7859   -0.2106 C   0  0  0  0  0  0  0  0  0  0  0  0
   -2.2179    2.4905   -0.9484 H   0  0  0  0  0  0  0  0  0  0  0  0
   -2.0184    2.2086    0.7800 H   0  0  0  0  0  0  0  0  0  0  0  0
    2.1687    2.3257    1.0745 H   0  0  0  0  0  0  0  0  0  0  0  0
    4.5903    2.1628    0.7290 H   0  0  0  0  0  0  0  0  0  0  0  0
    5.8339    0.0151   -0.2512 O   0  0  0  0  0  0  0  0  0  0  0  0
    6.2920    0.8242    0.0057 H   0  0  0  0  0  0  0  0  0  0  0  0
    4.0996   -1.8110   -0.7269 H   0  0  0  0  0  0  0  0  0  0  0  0
    1.8748   -2.8963   -0.0052 H   0  0  0  0  0  0  0  0  0  0  0  0
    1.4834   -2.1952   -1.5636 H   0  0  0  0  0  0  0  0  0  0  0  0
   -0.5890   -2.7643   -0.1809 H   0  0  0  0  0  0  0  0  0  0  0  0
   -2.0200   -0.0364    1.6870 H   0  0  0  0  0  0  0  0  0  0  0  0
  1  2  1  0
  1  3  1  0
  1  4  1  0
  5  1  1  6
  5  6  1  0
  5 14  1  0
  5 29  1  0
  6  7  2  0
  6  8  1  0
  8  9  1  0
  8 10  1  0
  8 11  1  0
 11 12  1  0
 11 13  1  0
 11 14  1  0
 14 15  1  0
 14 40  1  1
 15 16  2  0
 15 24  1  0
 16 17  1  0
 16 39  1  0
 17 18  1  0
 17 37  1  0
 17 38  1  0
 18 19  2  0
 18 23  1  0
 19 20  1  0
 19 36  1  0
 20 21  2  0
 20 34  1  0
 21 22  1  0
 21 33  1  0
 22 23  2  0
 22 32  1  0
 23 24  1  0
 24 25  1  1
 24 26  1  0
 26 27  1  0
 26 28  1  0
 26 29  1  0
 29 30  1  0
 29 31  1  0
 34 35  1  0
M  END
$$$$

     RDKit          3D

 40 43  0  0  0  0  0  0  0  0999 V2000
    1.1915    0.7440    1.4335 C   0  0  0  0  0  0  0  0  0  0  0  0
    1.5235    0.0617    2.2110 H   0  0  0  0  0  0  0  0  0  0  0  0
    1.3071    1.7608    1.8041 H   0  0  0  0  0  0  0  0  0  0  0  0
    0.1384    0.5588    1.2368 H   0  0  0  0  0  0  0  0  0  0  0  0
    2.0106    0.5821    0.1418 C   0  0  1  0  0  0  0  0  0  0  0  0
    3.4608    0.7655    0.5542 C   0  0  0  0  0  0  0  0  0  0  0  0
    4.0622    1.8046    0.6102 O   0  0  0  0  0  0  0  0  0  0  0  0
    4.0282   -0.6056    0.8830 C   0  0  0  0  0  0  0  0  0  0  0  0
    4.4060   -0.6238    1.9054 H   0  0  0  0  0  0  0  0  0  0  0  0
    4.8808   -0.7780    0.2230 H   0  0  0  0  0  0  0  0  0  0  0  0
    2.9034   -1.6146    0.6237 C   0  0  0  0  0  0  0  0  0  0  0  0
    2.3629   -1.8413    1.5416 H   0  0  0  0  0  0  0  0  0  0  0  0
    3.2779   -2.5514    0.2132 H   0  0  0  0  0  0  0  0  0  0  0  0
    2.0081   -0.8738   -0.3680 C   0  0  1  0  0  0  0  0  0  0  0  0
    0.5899   -1.2786   -0.5705 C   0  0  0  0  0  0  0  0  0  0  0  0
   -0.0695   -2.2597    0.0277 C   0  0  0  0  0  0  0  0  0  0  0  0
   -1.5493   -2.3744   -0.1967 C   0  0  0  0  0  0  0  0  0  0  0  0
   -2.1491   -0.9953   -0.1414 C   0  0  0  0  0  0  0  0  0  0  0  0
   -3.3268   -0.7432    0.5343 C   0  0  0  0  0  0  0  0  0  0  0  0
   -3.8400    0.5487    0.5880 C   0  0  0  0  0  0  0  0  0  0  0  0
   -3.1559    1.5814   -0.0362 C   0  0  0  0  0  0  0  0  0  0  0  0
   -1.9734    1.3260   -0.7108 C   0  0  0  0  0  0  0  0  0  0  0  0
   -1.4574    0.0436   -0.7713 C   0  0  0  0  0  0  0  0  0  0  0  0
   -0.1821   -0.3459   -1.4865 C   0  0  1  0  0  0  0  0  0  0  0  0
   -0.4999   -0.9405   -2.3585 H   0  0  0  0  0  0  0  0  0  0  0  0
    0.6916    0.7969   -2.0161 C   0  0  0  0  0  0  0  0  0  0  0  0
    0.0740    1.5052   -2.5700 H   0  0  0  0  0  0  0  0  0  0  0  0
    1.3917    0.3693   -2.7379 H   0  0  0  0  0  0  0  0  0  0  0  0
    1.4828    1.5419   -0.9320 C   0  0  0  0  0  0  0  0  0  0  0  0
    0.8489    2.2924   -0.4598 H   0  0  0  0  0  0  0  0  0  0  0  0
    2.3182    2.0706   -1.3974 H   0  0  0  0  0  0  0  0  0  0  0  0
   -1.4655    2.1491   -1.1878 H   0  0  0  0  0  0  0  0  0  0  0  0
   -3.5472    2.5896    0.0042 H   0  0  0  0  0  0  0  0  0  0  0  0
   -5.0064    0.7510    1.2629 O   0  0  0  0  0  0  0  0  0  0  0  0
   -5.2460    1.6844    1.2236 H   0  0  0  0  0  0  0  0  0  0  0  0
   -3.8669   -1.5359    1.0280 H   0  0  0  0  0  0  0  0  0  0  0  0
   -1.7375   -2.7971   -1.1923 H   0  0  0  0  0  0  0  0  0  0  0  0
   -2.0136   -3.0302    0.5390 H   0  0  0  0  0  0  0  0  0  0  0  0
    0.4045   -2.9604    0.6952 H   0  0  0  0  0  0  0  0  0  0  0  0
    2.5210   -0.8829   -1.3379 H   0  0  0  0  0  0  0  0  0  0  0  0
  1  2  1  0
  1  3  1  0
  1  4  1  0
  5  1  1  1
  5  6  1  0
  5 14  1  0
  5 29  1  0
  6  7  2  0
  6  8  1  0
  8  9  1  0
  8 10  1  0
  8 11  1  0
 11 12  1  0
 11 13  1  0
 11 14  1  0
 14 15  1  0
 14 40  1  6
 15 16  2  0
 15 24  1  0
 16 17  1  0
 16 39  1  0
 17 18  1  0
 17 37  1  0
 17 38  1  0
 18 19  2  0
 18 23  1  0
 19 20  1  0
 19 36  1  0
 20 21  2  0
 20 34  1  0
 21 22  1  0
 21 33  1  0
 22 23  2  0
 22 32  1  0
 23 24  1  0
 24 25  1  6
 24 26  1  0
 26 27  1  0
 26 28  1  0
 26 29  1  0
 29 30  1  0
 29 31  1  0
 34 35  1  0
M  END
$$$$

     RDKit          3D

 40 43  0  0  0  0  0  0  0  0999 V2000
   -1.1923   -0.7400    1.4362 C   0  0  0  0  0  0  0  0  0  0  0  0
   -1.5216   -0.0530    2.2108 H   0  0  0  0  0  0  0  0  0  0  0  0
   -1.3111   -1.7547    1.8111 H   0  0  0  0  0  0  0  0  0  0  0  0
   -0.1385   -0.5604    1.2381 H   0  0  0  0  0  0  0  0  0  0  0  0
   -2.0110   -0.5811    0.1440 C   0  0  1  0  0  0  0  0  0  0  0  0
   -3.4617   -0.7620    0.5563 C   0  0  0  0  0  0  0  0  0  0  0  0
   -4.0646   -1.7999    0.6138 O   0  0  0  0  0  0  0  0  0  0  0  0
   -4.0279    0.6105    0.8820 C   0  0  0  0  0  0  0  0  0  0  0  0
   -4.4042    0.6314    1.9049 H   0  0  0  0  0  0  0  0  0  0  0  0
   -4.8813    0.7820    0.2228 H   0  0  0  0  0  0  0  0  0  0  0  0
   -2.9028    1.6181    0.6190 C   0  0  0  0  0  0  0  0  0  0  0  0
   -2.3623    1.8479    1.5362 H   0  0  0  0  0  0  0  0  0  0  0  0
   -3.2769    2.5536    0.2051 H   0  0  0  0  0  0  0  0  0  0  0  0
   -2.0077    0.8735   -0.3701 C   0  0  1  0  0  0  0  0  0  0  0  0
   -0.5895    1.2768   -0.5738 C   0  0  0  0  0  0  0  0  0  0  0  0
    0.0699    2.2592    0.0222 C   0  0  0  0  0  0  0  0  0  0  0  0
    1.5500    2.3724   -0.2027 C   0  0  0  0  0  0  0  0  0  0  0  0
    2.1479    0.9924   -0.1450 C   0  0  0  0  0  0  0  0  0  0  0  0
    3.3278    0.7381    0.5313 C   0  0  0  0  0  0  0  0  0  0  0  0
    3.8402   -0.5521    0.5879 C   0  0  0  0  0  0  0  0  0  0  0  0
    3.1549   -1.5875   -0.0349 C   0  0  0  0  0  0  0  0  0  0  0  0
    1.9749   -1.3308   -0.7077 C   0  0  0  0  0  0  0  0  0  0  0  0
    1.4577   -0.0467   -0.7711 C   0  0  0  0  0  0  0  0  0  0  0  0
    0.1821    0.3413   -1.4870 C   0  0  1  0  0  0  0  0  0  0  0  0
    0.4995    0.9334   -2.3609 H   0  0  0  0  0  0  0  0  0  0  0  0
   -0.6919   -0.8029   -2.0131 C   0  0  0  0  0  0  0  0  0  0  0  0
   -0.0741   -1.5129   -2.5643 H   0  0  0  0  0  0  0  0  0  0  0  0
   -1.3917   -0.3772   -2.7364 H   0  0  0  0  0  0  0  0  0  0  0  0
   -1.4832   -1.5443   -0.9268 C   0  0  0  0  0  0  0  0  0  0  0  0
   -0.8491   -2.2930   -0.4522 H   0  0  0  0  0  0  0  0  0  0  0  0
   -2.3185   -2.0744   -1.3905 H   0  0  0  0  0  0  0  0  0  0  0  0
    1.4651   -2.1531   -1.1835 H   0  0  0  0  0  0  0  0  0  0  0  0
    3.5599   -2.5851    0.0181 H   0  0  0  0  0  0  0  0  0  0  0  0
    5.0002   -0.8411    1.2415 O   0  0  0  0  0  0  0  0  0  0  0  0
    5.3663   -0.0355    1.6252 H   0  0  0  0  0  0  0  0  0  0  0  0
    3.8564    1.5483    1.0187 H   0  0  0  0  0  0  0  0  0  0  0  0
    1.7385    2.7931   -1.1992 H   0  0  0  0  0  0  0  0  0  0  0  0
    2.0135    3.0309    0.5317 H   0  0  0  0  0  0  0  0  0  0  0  0
   -0.4034    2.9622    0.6877 H   0  0  0  0  0  0  0  0  0  0  0  0
   -2.5202    0.8799   -1.3401 H   0  0  0  0  0  0  0  0  0  0  0  0
  1  2  1  0
  1  3  1  0
  1  4  1  0
  5  1  1  1
  5  6  1  0
  5 14  1  0
  5 29  1  0
  6  7  2  0
  6  8  1  0
  8  9  1  0
  8 10  1  0
  8 11  1  0
 11 12  1  0
 11 13  1  0
 11 14  1  0
 14 15  1  0
 14 40  1  6
 15 16  2  0
 15 24  1  0
 16 17  1  0
 16 39  1  0
 17 18  1  0
 17 37  1  0
 17 38  1  0
 18 19  2  0
 18 23  1  0
 19 20  1  0
 19 36  1  0
 20 21  2  0
 20 34  1  0
 21 22  1  0
 21 33  1  0
 22 23  2  0
 22 32  1  0
 23 24  1  0
 24 25  1  6
 24 26  1  0
 26 27  1  0
 26 28  1  0
 26 29  1  0
 29 30  1  0
 29 31  1  0
 34 35  1  0
M  END
$$$$
