
     RDKit          3D

 51 54  0  0  0  0  0  0  0  0999 V2000
   -3.7937   -1.2129   -2.6595 C   0  0  0  0  0  0  0  0  0  0  0  0
   -3.7435   -0.7257   -1.5667 C   0  0  0  0  0  0  0  0  0  0  0  0
   -3.7787   -0.1735   -0.2160 C   0  0  1  0  0  0  0  0  0  0  0  0
   -4.8637   -0.7271    0.5031 O   0  0  0  0  0  0  0  0  0  0  0  0
   -4.8148   -1.6870    0.4443 H   0  0  0  0  0  0  0  0  0  0  0  0
   -2.3952   -0.3388    0.4885 C   0  0  1  0  0  0  0  0  0  0  0  0
   -1.6530   -1.6461    0.2192 C   0  0  0  0  0  0  0  0  0  0  0  0
   -2.1495   -2.4844    0.7151 H   0  0  0  0  0  0  0  0  0  0  0  0
   -0.2088   -1.5513    0.7198 C   0  0  0  0  0  0  0  0  0  0  0  0
   -0.2120   -1.4627    1.8052 H   0  0  0  0  0  0  0  0  0  0  0  0
    0.2964   -2.4832    0.4645 H   0  0  0  0  0  0  0  0  0  0  0  0
    0.5503   -0.3679    0.1029 C   0  0  1  0  0  0  0  0  0  0  0  0
    0.5595   -0.5152   -0.9852 H   0  0  0  0  0  0  0  0  0  0  0  0
   -0.1985    0.9534    0.3536 C   0  0  2  0  0  0  0  0  0  0  0  0
   -1.6171    0.7994   -0.1861 C   0  0  2  0  0  0  0  0  0  0  0  0
   -2.5702    1.9926   -0.0938 C   0  0  0  0  0  0  0  0  0  0  0  0
   -2.3630    2.7375   -0.8604 H   0  0  0  0  0  0  0  0  0  0  0  0
   -2.4848    2.4761    0.8795 H   0  0  0  0  0  0  0  0  0  0  0  0
   -3.9622    1.3656   -0.2851 C   0  0  0  0  0  0  0  0  0  0  0  0
   -4.6598    1.6547    0.4993 H   0  0  0  0  0  0  0  0  0  0  0  0
   -4.4018    1.6452   -1.2415 H   0  0  0  0  0  0  0  0  0  0  0  0
   -1.5338    0.5337   -1.2484 H   0  0  0  0  0  0  0  0  0  0  0  0
    0.5282    2.0989   -0.3435 C   0  0  0  0  0  0  0  0  0  0  0  0
    1.9579    2.2081    0.1777 C   0  0  0  0  0  0  0  0  0  0  0  0
    2.7001    0.9212    0.0018 C   0  0  0  0  0  0  0  0  0  0  0  0
    3.9078    0.9122   -0.5748 C   0  0  0  0  0  0  0  0  0  0  0  0
    4.7765   -0.2571   -0.6782 C   0  0  0  0  0  0  0  0  0  0  0  0
    5.8355   -0.2393   -1.2696 O   0  0  0  0  0  0  0  0  0  0  0  0
    4.2746   -1.4717    0.0671 C   0  0  0  0  0  0  0  0  0  0  0  0
    2.7567   -1.5680   -0.0111 C   0  0  0  0  0  0  0  0  0  0  0  0
    2.4335   -2.4577    0.5307 H   0  0  0  0  0  0  0  0  0  0  0  0
    2.4750   -1.6932   -1.0598 H   0  0  0  0  0  0  0  0  0  0  0  0
    2.0407   -0.3248    0.5500 C   0  0  2  0  0  0  0  0  0  0  0  0
    2.1843   -0.2893    2.0819 C   0  0  0  0  0  0  0  0  0  0  0  0
    3.2015   -0.0187    2.3563 H   0  0  0  0  0  0  0  0  0  0  0  0
    1.5149    0.4435    2.5227 H   0  0  0  0  0  0  0  0  0  0  0  0
    1.9638   -1.2631    2.5109 H   0  0  0  0  0  0  0  0  0  0  0  0
    4.7423   -2.3674   -0.3452 H   0  0  0  0  0  0  0  0  0  0  0  0
    4.6006   -1.3783    1.1063 H   0  0  0  0  0  0  0  0  0  0  0  0
    4.3256    1.8276   -0.9732 H   0  0  0  0  0  0  0  0  0  0  0  0
    2.4866    3.0162   -0.3304 H   0  0  0  0  0  0  0  0  0  0  0  0
    1.9274    2.4501    1.2443 H   0  0  0  0  0  0  0  0  0  0  0  0
    0.0038    3.0391   -0.1677 H   0  0  0  0  0  0  0  0  0  0  0  0
    0.5469    1.9189   -1.4208 H   0  0  0  0  0  0  0  0  0  0  0  0
   -0.2383    1.1700    1.4243 H   0  0  0  0  0  0  0  0  0  0  0  0
   -1.6499   -1.8479   -0.8548 H   0  0  0  0  0  0  0  0  0  0  0  0
   -2.6096   -0.1470    1.9921 C   0  0  0  0  0  0  0  0  0  0  0  0
   -1.6699   -0.0184    2.5191 H   0  0  0  0  0  0  0  0  0  0  0  0
   -3.2377    0.7150    2.1906 H   0  0  0  0  0  0  0  0  0  0  0  0
   -3.1114   -1.0211    2.4025 H   0  0  0  0  0  0  0  0  0  0  0  0
   -3.8088   -1.6177   -3.6276 H   0  0  0  0  0  0  0  0  0  0  0  0
  1  2  3  0
  1 51  1  0
  3  2  1  6
  3  4  1  0
  3  6  1  0
  3 19  1  0
  4  5  1  0
  6  7  1  0
  6 15  1  0
  6 47  1  1
  7  8  1  0
  7  9  1  0
  7 46  1  0
  9 10  1  0
  9 11  1  0
  9 12  1  0
 12 13  1  6
 12 14  1  0
 12 33  1  0
 14 15  1  0
 14 23  1  0
 14 45  1  1
 15 16  1  0
 15 22  1  6
 16 17  1  0
 16 18  1  0
 16 19  1  0
 19 20  1  0
 19 21  1  0
 23 24  1  0
 23 43  1  0
 23 44  1  0
 24 25  1  0
 24 41  1  0
 24 42  1  0
 25 26  2  0
 25 33  1  0
 26 27  1  0
 26 40  1  0
 27 28  2  0
 27 29  1  0
 29 30  1  0
 29 38  1  0
 29 39  1  0
 30 31  1  0
 30 32  1  0
 30 33  1  0
 33 34  1  1
 34 35  1  0
 34 36  1  0
 34 37  1  0
 47 48  1  0
 47 49  1  0
 47 50  1  0
M  END
$$$$

     RDKit          3D

 51 54  0  0  0  0  0  0  0  0999 V2000
   -3.3475   -2.7133   -1.4243 C   0  0  0  0  0  0  0  0  0  0  0  0
   -3.4189   -1.6492   -0.8796 C   0  0  0  0  0  0  0  0  0  0  0  0
   -3.6026   -0.3805   -0.1814 C   0  0  1  0  0  0  0  0  0  0  0  0
   -4.7518   -0.4446    0.6406 O   0  0  0  0  0  0  0  0  0  0  0  0
   -4.6933   -1.2321    1.1917 H   0  0  0  0  0  0  0  0  0  0  0  0
   -2.2989    0.0325    0.5725 C   0  0  1  0  0  0  0  0  0  0  0  0
   -1.5259   -1.0972    1.2505 C   0  0  0  0  0  0  0  0  0  0  0  0
   -2.0634   -1.4608    2.1302 H   0  0  0  0  0  0  0  0  0  0  0  0
   -0.1341   -0.6188    1.6759 C   0  0  0  0  0  0  0  0  0  0  0  0
   -0.2303    0.1308    2.4606 H   0  0  0  0  0  0  0  0  0  0  0  0
    0.3951   -1.4733    2.0990 H   0  0  0  0  0  0  0  0  0  0  0  0
    0.6678   -0.0423    0.5023 C   0  0  1  0  0  0  0  0  0  0  0  0
    0.7756   -0.8358   -0.2474 H   0  0  0  0  0  0  0  0  0  0  0  0
   -0.1114    1.1048   -0.1759 C   0  0  2  0  0  0  0  0  0  0  0  0
   -1.4642    0.5467   -0.6093 C   0  0  2  0  0  0  0  0  0  0  0  0
   -2.4307    1.4617   -1.3642 C   0  0  0  0  0  0  0  0  0  0  0  0
   -2.1524    1.5675   -2.4115 H   0  0  0  0  0  0  0  0  0  0  0  0
   -2.4464    2.4558   -0.9172 H   0  0  0  0  0  0  0  0  0  0  0  0
   -3.7925    0.7612   -1.2143 C   0  0  0  0  0  0  0  0  0  0  0  0
   -4.5640    1.4293   -0.8348 H   0  0  0  0  0  0  0  0  0  0  0  0
   -4.1421    0.3522   -2.1613 H   0  0  0  0  0  0  0  0  0  0  0  0
   -1.2692   -0.3193   -1.2558 H   0  0  0  0  0  0  0  0  0  0  0  0
    0.6541    1.6687   -1.3725 C   0  0  0  0  0  0  0  0  0  0  0  0
    2.0636    2.1161   -0.9658 C   0  0  0  0  0  0  0  0  0  0  0  0
    2.7306    0.9175   -0.3756 C   0  0  0  0  0  0  0  0  0  0  0  0
    3.7021    0.2754   -1.0346 C   0  0  0  0  0  0  0  0  0  0  0  0
    4.2252   -1.0390   -0.6707 C   0  0  0  0  0  0  0  0  0  0  0  0
    5.1847   -1.5438   -1.2140 O   0  0  0  0  0  0  0  0  0  0  0  0
    3.4141   -1.7471    0.3921 C   0  0  0  0  0  0  0  0  0  0  0  0
    2.9674   -0.7510    1.4527 C   0  0  0  0  0  0  0  0  0  0  0  0
    3.8640   -0.3090    1.8958 H   0  0  0  0  0  0  0  0  0  0  0  0
    2.4367   -1.2700    2.2509 H   0  0  0  0  0  0  0  0  0  0  0  0
    2.1078    0.3997    0.8981 C   0  0  2  0  0  0  0  0  0  0  0  0
    2.0986    1.4927    1.9797 C   0  0  0  0  0  0  0  0  0  0  0  0
    1.8834    1.0498    2.9493 H   0  0  0  0  0  0  0  0  0  0  0  0
    3.0791    1.9619    2.0348 H   0  0  0  0  0  0  0  0  0  0  0  0
    1.3622    2.2658    1.7884 H   0  0  0  0  0  0  0  0  0  0  0  0
    2.5516   -2.2076   -0.0967 H   0  0  0  0  0  0  0  0  0  0  0  0
    4.0121   -2.5461    0.8333 H   0  0  0  0  0  0  0  0  0  0  0  0
    4.1246    0.7060   -1.9331 H   0  0  0  0  0  0  0  0  0  0  0  0
    2.6093    2.4702   -1.8411 H   0  0  0  0  0  0  0  0  0  0  0  0
    1.9972    2.9338   -0.2481 H   0  0  0  0  0  0  0  0  0  0  0  0
    0.1090    2.5143   -1.7943 H   0  0  0  0  0  0  0  0  0  0  0  0
    0.7369    0.9005   -2.1453 H   0  0  0  0  0  0  0  0  0  0  0  0
   -0.2753    1.9160    0.5372 H   0  0  0  0  0  0  0  0  0  0  0  0
   -1.4206   -1.9331    0.5544 H   0  0  0  0  0  0  0  0  0  0  0  0
   -2.6704    1.1087    1.5956 C   0  0  0  0  0  0  0  0  0  0  0  0
   -3.2544    0.6603    2.3969 H   0  0  0  0  0  0  0  0  0  0  0  0
   -1.7905    1.5667    2.0353 H   0  0  0  0  0  0  0  0  0  0  0  0
   -3.2765    1.8870    1.1444 H   0  0  0  0  0  0  0  0  0  0  0  0
   -3.2555   -3.6327   -1.9217 H   0  0  0  0  0  0  0  0  0  0  0  0
  1  2  3  0
  1 51  1  0
  3  2  1  6
  3  4  1  0
  3  6  1  0
  3 19  1  0
  4  5  1  0
  6  7  1  0
  6 15  1  0
  6 47  1  1
  7  8  1  0
  7  9  1  0
  7 46  1  0
  9 10  1  0
  9 11  1  0
  9 12  1  0
 12 13  1  6
 12 14  1  0
 12 33  1  0
 14 15  1  0
 14 23  1  0
 14 45  1  1
 15 16  1  0
 15 22  1  6
 16 17  1  0
 16 18  1  0
 16 19  1  0
 19 20  1  0
 19 21  1  0
 23 24  1  0
 23 43  1  0
 23 44  1  0
 24 25  1  0
 24 41  1  0
 24 42  1  0
 25 26  2  0
 25 33  1  0
 26 27  1  0
 26 40  1  0
 27 28  2  0
 27 29  1  0
 29 30  1  0
 29 38  1  0
 29 39  1  0
 30 31  1  0
 30 32  1  0
 30 33  1  0
 33 34  1  1
 34 35  1  0
 34 36  1  0
 34 37  1  0
 47 48  1  0
 47 49  1  0
 47 50  1  0
M  END
$$$$

     RDKit          3D

 51 54  0  0  0  0  0  0  0  0999 V2000
    3.2746    2.7060   -1.4295 C   0  0  0  0  0  0  0  0  0  0  0  0
    3.3969    1.6670   -0.8485 C   0  0  0  0  0  0  0  0  0  0  0  0
    3.6049    0.3986   -0.1592 C   0  0  1  0  0  0  0  0  0  0  0  0
    4.7279    0.5815    0.6725 O   0  0  0  0  0  0  0  0  0  0  0  0
    4.9254   -0.2546    1.1080 H   0  0  0  0  0  0  0  0  0  0  0  0
    2.3042   -0.0477    0.5808 C   0  0  1  0  0  0  0  0  0  0  0  0
    1.5292    1.0601    1.2895 C   0  0  0  0  0  0  0  0  0  0  0  0
    2.0731    1.4008    2.1728 H   0  0  0  0  0  0  0  0  0  0  0  0
    0.1370    0.5701    1.6988 C   0  0  0  0  0  0  0  0  0  0  0  0
    0.2278   -0.1990    2.4654 H   0  0  0  0  0  0  0  0  0  0  0  0
   -0.3932    1.4138    2.1411 H   0  0  0  0  0  0  0  0  0  0  0  0
   -0.6615    0.0254    0.5072 C   0  0  1  0  0  0  0  0  0  0  0  0
   -0.7673    0.8399   -0.2196 H   0  0  0  0  0  0  0  0  0  0  0  0
    0.1188   -1.1016   -0.2034 C   0  0  2  0  0  0  0  0  0  0  0  0
    1.4729   -0.5313   -0.6161 C   0  0  2  0  0  0  0  0  0  0  0  0
    2.4425   -1.4227   -1.3954 C   0  0  0  0  0  0  0  0  0  0  0  0
    2.1661   -1.4988   -2.4456 H   0  0  0  0  0  0  0  0  0  0  0  0
    2.4581   -2.4308   -0.9789 H   0  0  0  0  0  0  0  0  0  0  0  0
    3.8041   -0.7259   -1.2219 C   0  0  0  0  0  0  0  0  0  0  0  0
    4.5727   -1.4189   -0.8752 H   0  0  0  0  0  0  0  0  0  0  0  0
    4.1559   -0.2931   -2.1575 H   0  0  0  0  0  0  0  0  0  0  0  0
    1.2794    0.3520   -1.2380 H   0  0  0  0  0  0  0  0  0  0  0  0
   -0.6437   -1.6270   -1.4195 C   0  0  0  0  0  0  0  0  0  0  0  0
   -2.0542   -2.0865   -1.0305 C   0  0  0  0  0  0  0  0  0  0  0  0
   -2.7230   -0.9072   -0.4044 C   0  0  0  0  0  0  0  0  0  0  0  0
   -3.6948   -0.2468   -1.0443 C   0  0  0  0  0  0  0  0  0  0  0  0
   -4.2212    1.0547   -0.6396 C   0  0  0  0  0  0  0  0  0  0  0  0
   -5.1840    1.5719   -1.1650 O   0  0  0  0  0  0  0  0  0  0  0  0
   -3.4096    1.7320    0.4424 C   0  0  0  0  0  0  0  0  0  0  0  0
   -2.9630    0.7053    1.4735 C   0  0  0  0  0  0  0  0  0  0  0  0
   -3.8597    0.2503    1.9031 H   0  0  0  0  0  0  0  0  0  0  0  0
   -2.4326    1.2008    2.2865 H   0  0  0  0  0  0  0  0  0  0  0  0
   -2.1027   -0.4284    0.8858 C   0  0  2  0  0  0  0  0  0  0  0  0
   -2.0968   -1.5538    1.9338 C   0  0  0  0  0  0  0  0  0  0  0  0
   -3.0786   -2.0217    1.9743 H   0  0  0  0  0  0  0  0  0  0  0  0
   -1.3628   -2.3232    1.7195 H   0  0  0  0  0  0  0  0  0  0  0  0
   -1.8809   -1.1409    2.9164 H   0  0  0  0  0  0  0  0  0  0  0  0
   -2.5469    2.2060   -0.0330 H   0  0  0  0  0  0  0  0  0  0  0  0
   -4.0071    2.5180    0.9069 H   0  0  0  0  0  0  0  0  0  0  0  0
   -4.1157   -0.6500   -1.9561 H   0  0  0  0  0  0  0  0  0  0  0  0
   -2.5977   -2.4127   -1.9180 H   0  0  0  0  0  0  0  0  0  0  0  0
   -1.9901   -2.9267   -0.3390 H   0  0  0  0  0  0  0  0  0  0  0  0
   -0.0980   -2.4591   -1.8669 H   0  0  0  0  0  0  0  0  0  0  0  0
   -0.7240   -0.8345   -2.1674 H   0  0  0  0  0  0  0  0  0  0  0  0
    0.2771   -1.9360    0.4841 H   0  0  0  0  0  0  0  0  0  0  0  0
    1.4279    1.9131    0.6154 H   0  0  0  0  0  0  0  0  0  0  0  0
    2.6636   -1.1546    1.5785 C   0  0  0  0  0  0  0  0  0  0  0  0
    3.2087   -0.7249    2.4181 H   0  0  0  0  0  0  0  0  0  0  0  0
    1.7738   -1.6299    1.9784 H   0  0  0  0  0  0  0  0  0  0  0  0
    3.2752   -1.9289    1.1218 H   0  0  0  0  0  0  0  0  0  0  0  0
    3.1504    3.6159   -1.9367 H   0  0  0  0  0  0  0  0  0  0  0  0
  1  2  3  0
  1 51  1  0
  3  2  1  6
  3  4  1  0
  3  6  1  0
  3 19  1  0
  4  5  1  0
  6  7  1  0
  6 15  1  0
  6 47  1  1
  7  8  1  0
  7  9  1  0
  7 46  1  0
  9 10  1  0
  9 11  1  0
  9 12  1  0
 12 13  1  6
 12 14  1  0
 12 33  1  0
 14 15  1  0
 14 23  1  0
 14 45  1  1
 15 16  1  0
 15 22  1  6
 16 17  1  0
 16 18  1  0
 16 19  1  0
 19 20  1  0
 19 21  1  0
 23 24  1  0
 23 43  1  0
 23 44  1  0
 24 25  1  0
 24 41  1  0
 24 42  1  0
 25 26  2  0
 25 33  1  0
 26 27  1  0
 26 40  1  0
 27 28  2  0
 27 29  1  0
 29 30  1  0
 29 38  1  0
 29 39  1  0
 30 31  1  0
 30 32  1  0
 30 33  1  0
 33 34  1  1
 34 35  1  0
 34 36  1  0
 34 37  1  0
 47 48  1  0
 47 49  1  0
 47 50  1  0
M  END
$$$$

     RDKit          3D

 51 54  0  0  0  0  0  0  0  0999 V2000
    3.6989    0.4719   -2.8478 C   0  0  0  0  0  0  0  0  0  0  0  0
    3.6888    0.3009   -1.6625 C   0  0  0  0  0  0  0  0  0  0  0  0
    3.7737    0.1454   -0.2135 C   0  0  1  0  0  0  0  0  0  0  0  0
    4.8627    0.8968    0.2860 O   0  0  0  0  0  0  0  0  0  0  0  0
    4.8038    1.7925   -0.0632 H   0  0  0  0  0  0  0  0  0  0  0  0
    2.4018    0.4673    0.4585 C   0  0  1  0  0  0  0  0  0  0  0  0
    1.6603    1.6899   -0.0831 C   0  0  0  0  0  0  0  0  0  0  0  0
    2.1517    2.6096    0.2448 H   0  0  0  0  0  0  0  0  0  0  0  0
    0.1989    1.7059    0.3833 C   0  0  0  0  0  0  0  0  0  0  0  0
    0.1507    1.8771    1.4588 H   0  0  0  0  0  0  0  0  0  0  0  0
   -0.2947    2.5455   -0.1068 H   0  0  0  0  0  0  0  0  0  0  0  0
   -0.5150    0.3976    0.0271 C   0  0  1  0  0  0  0  0  0  0  0  0
   -0.4276    0.2868   -1.0609 H   0  0  0  0  0  0  0  0  0  0  0  0
    0.2237   -0.7890    0.6810 C   0  0  2  0  0  0  0  0  0  0  0  0
    1.6256   -0.8043    0.0768 C   0  0  2  0  0  0  0  0  0  0  0  0
    2.5936   -1.9396    0.4267 C   0  0  0  0  0  0  0  0  0  0  0  0
    2.4150   -2.8239   -0.1837 H   0  0  0  0  0  0  0  0  0  0  0  0
    2.4912   -2.2306    1.4721 H   0  0  0  0  0  0  0  0  0  0  0  0
    3.9860   -1.3475    0.1407 C   0  0  0  0  0  0  0  0  0  0  0  0
    4.6398   -1.3898    1.0102 H   0  0  0  0  0  0  0  0  0  0  0  0
    4.4863   -1.8613   -0.6791 H   0  0  0  0  0  0  0  0  0  0  0  0
    1.5233   -0.7991   -1.0160 H   0  0  0  0  0  0  0  0  0  0  0  0
   -0.5445   -2.1111    0.5048 C   0  0  0  0  0  0  0  0  0  0  0  0
   -1.6453   -2.0132   -0.5465 C   0  0  0  0  0  0  0  0  0  0  0  0
   -2.5968   -0.8916   -0.2704 C   0  0  0  0  0  0  0  0  0  0  0  0
   -3.8915   -0.9844   -0.5962 C   0  0  0  0  0  0  0  0  0  0  0  0
   -4.8512    0.1072   -0.4674 C   0  0  0  0  0  0  0  0  0  0  0  0
   -6.0461   -0.0548   -0.6096 O   0  0  0  0  0  0  0  0  0  0  0  0
   -4.2705    1.4725   -0.1567 C   0  0  0  0  0  0  0  0  0  0  0  0
   -2.7565    1.5544   -0.3183 C   0  0  0  0  0  0  0  0  0  0  0  0
   -2.4138    2.4941    0.1164 H   0  0  0  0  0  0  0  0  0  0  0  0
   -2.5090    1.5632   -1.3831 H   0  0  0  0  0  0  0  0  0  0  0  0
   -2.0294    0.3690    0.3414 C   0  0  2  0  0  0  0  0  0  0  0  0
   -2.3060    0.3771    1.8528 C   0  0  0  0  0  0  0  0  0  0  0  0
   -1.7662   -0.4157    2.3594 H   0  0  0  0  0  0  0  0  0  0  0  0
   -2.0091    1.3308    2.2828 H   0  0  0  0  0  0  0  0  0  0  0  0
   -3.3648    0.2250    2.0426 H   0  0  0  0  0  0  0  0  0  0  0  0
   -4.7627    2.2025   -0.8033 H   0  0  0  0  0  0  0  0  0  0  0  0
   -4.5628    1.7213    0.8668 H   0  0  0  0  0  0  0  0  0  0  0  0
   -4.2931   -1.9043   -0.9996 H   0  0  0  0  0  0  0  0  0  0  0  0
   -1.1908   -1.8380   -1.5272 H   0  0  0  0  0  0  0  0  0  0  0  0
   -2.1888   -2.9576   -0.6101 H   0  0  0  0  0  0  0  0  0  0  0  0
   -1.0036   -2.4025    1.4516 H   0  0  0  0  0  0  0  0  0  0  0  0
    0.1438   -2.9085    0.2256 H   0  0  0  0  0  0  0  0  0  0  0  0
    0.3276   -0.5955    1.7505 H   0  0  0  0  0  0  0  0  0  0  0  0
    1.6815    1.6703   -1.1758 H   0  0  0  0  0  0  0  0  0  0  0  0
    2.6413    0.6302    1.9621 C   0  0  0  0  0  0  0  0  0  0  0  0
    1.7397    0.9395    2.4809 H   0  0  0  0  0  0  0  0  0  0  0  0
    2.9990   -0.2892    2.4125 H   0  0  0  0  0  0  0  0  0  0  0  0
    3.4005    1.3936    2.1214 H   0  0  0  0  0  0  0  0  0  0  0  0
    3.6787    0.5946   -3.8899 H   0  0  0  0  0  0  0  0  0  0  0  0
  1  2  3  0
  1 51  1  0
  3  2  1  6
  3  4  1  0
  3  6  1  0
  3 19  1  0
  4  5  1  0
  6  7  1  0
  6 15  1  0
  6 47  1  1
  7  8  1  0
  7  9  1  0
  7 46  1  0
  9 10  1  0
  9 11  1  0
  9 12  1  0
 12 13  1  6
 12 14  1  0
 12 33  1  0
 14 15  1  0
 14 23  1  0
 14 45  1  1
 15 16  1  0
 15 22  1  6
 16 17  1  0
 16 18  1  0
 16 19  1  0
 19 20  1  0
 19 21  1  0
 23 24  1  0
 23 43  1  0
 23 44  1  0
 24 25  1  0
 24 41  1  0
 24 42  1  0
 25 26  2  0
 25 33  1  0
 26 27  1  0
 26 40  1  0
 27 28  2  0
 27 29  1  0
 29 30  1  0
 29 38  1  0
 29 39  1  0
 30 31  1  0
 30 32  1  0
 30 33  1  0
 33 34  1  1
 34 35  1  0
 34 36  1  0
 34 37  1  0
 47 48  1  0
 47 49  1  0
 47 50  1  0
M  END
$$$$

     RDKit          3D

 51 54  0  0  0  0  0  0  0  0999 V2000
    3.7719    0.3688   -2.8451 C   0  0  0  0  0  0  0  0  0  0  0  0
    3.7105    0.2656   -1.6535 C   0  0  0  0  0  0  0  0  0  0  0  0
    3.7703    0.1502   -0.1996 C   0  0  1  0  0  0  0  0  0  0  0  0
    4.7857    0.9960    0.3069 O   0  0  0  0  0  0  0  0  0  0  0  0
    5.5869    0.8535   -0.2076 H   0  0  0  0  0  0  0  0  0  0  0  0
    2.3977    0.4747    0.4489 C   0  0  1  0  0  0  0  0  0  0  0  0
    1.6616    1.6814   -0.1303 C   0  0  0  0  0  0  0  0  0  0  0  0
    2.1630    2.6028    0.1704 H   0  0  0  0  0  0  0  0  0  0  0  0
    0.2000    1.7117    0.3319 C   0  0  0  0  0  0  0  0  0  0  0  0
    0.1489    1.9111    1.4021 H   0  0  0  0  0  0  0  0  0  0  0  0
   -0.2913    2.5385   -0.1816 H   0  0  0  0  0  0  0  0  0  0  0  0
   -0.5157    0.3959    0.0062 C   0  0  1  0  0  0  0  0  0  0  0  0
   -0.4297    0.2610   -1.0792 H   0  0  0  0  0  0  0  0  0  0  0  0
    0.2201   -0.7786    0.6849 C   0  0  2  0  0  0  0  0  0  0  0  0
    1.6251   -0.8062    0.0897 C   0  0  2  0  0  0  0  0  0  0  0  0
    2.5915   -1.9317    0.4733 C   0  0  0  0  0  0  0  0  0  0  0  0
    2.4165   -2.8332   -0.1129 H   0  0  0  0  0  0  0  0  0  0  0  0
    2.4842   -2.1923    1.5262 H   0  0  0  0  0  0  0  0  0  0  0  0
    3.9855   -1.3461    0.1794 C   0  0  0  0  0  0  0  0  0  0  0  0
    4.6329   -1.3884    1.0554 H   0  0  0  0  0  0  0  0  0  0  0  0
    4.4815   -1.8781   -0.6333 H   0  0  0  0  0  0  0  0  0  0  0  0
    1.5300   -0.8260   -1.0036 H   0  0  0  0  0  0  0  0  0  0  0  0
   -0.5475   -2.1041    0.5291 C   0  0  0  0  0  0  0  0  0  0  0  0
   -1.6517   -2.0229   -0.5202 C   0  0  0  0  0  0  0  0  0  0  0  0
   -2.6012   -0.8960   -0.2601 C   0  0  0  0  0  0  0  0  0  0  0  0
   -3.8980   -0.9940   -0.5760 C   0  0  0  0  0  0  0  0  0  0  0  0
   -4.8554    0.1012   -0.4615 C   0  0  0  0  0  0  0  0  0  0  0  0
   -6.0521   -0.0631   -0.5865 O   0  0  0  0  0  0  0  0  0  0  0  0
   -4.2707    1.4729   -0.1891 C   0  0  0  0  0  0  0  0  0  0  0  0
   -2.7569    1.5484   -0.3572 C   0  0  0  0  0  0  0  0  0  0  0  0
   -2.4106    2.4959    0.0569 H   0  0  0  0  0  0  0  0  0  0  0  0
   -2.5127    1.5347   -1.4227 H   0  0  0  0  0  0  0  0  0  0  0  0
   -2.0297    0.3755    0.3242 C   0  0  2  0  0  0  0  0  0  0  0  0
   -2.3030    0.4141    1.8357 C   0  0  0  0  0  0  0  0  0  0  0  0
   -1.9950    1.3722    2.2474 H   0  0  0  0  0  0  0  0  0  0  0  0
   -3.3630    0.2766    2.0304 H   0  0  0  0  0  0  0  0  0  0  0  0
   -1.7707   -0.3753    2.3556 H   0  0  0  0  0  0  0  0  0  0  0  0
   -4.7636    2.1861   -0.8537 H   0  0  0  0  0  0  0  0  0  0  0  0
   -4.5599    1.7500    0.8279 H   0  0  0  0  0  0  0  0  0  0  0  0
   -4.3034   -1.9212   -0.9586 H   0  0  0  0  0  0  0  0  0  0  0  0
   -1.2003   -1.8643   -1.5052 H   0  0  0  0  0  0  0  0  0  0  0  0
   -2.1961   -2.9679   -0.5663 H   0  0  0  0  0  0  0  0  0  0  0  0
   -1.0034   -2.3829    1.4812 H   0  0  0  0  0  0  0  0  0  0  0  0
    0.1405   -2.9049    0.2588 H   0  0  0  0  0  0  0  0  0  0  0  0
    0.3183   -0.5656    1.7511 H   0  0  0  0  0  0  0  0  0  0  0  0
    1.6873    1.6288   -1.2214 H   0  0  0  0  0  0  0  0  0  0  0  0
    2.6247    0.6779    1.9493 C   0  0  0  0  0  0  0  0  0  0  0  0
    1.7085    0.9568    2.4591 H   0  0  0  0  0  0  0  0  0  0  0  0
    3.0222   -0.2148    2.4204 H   0  0  0  0  0  0  0  0  0  0  0  0
    3.3471    1.4792    2.0819 H   0  0  0  0  0  0  0  0  0  0  0  0
    3.7795    0.4523   -3.8912 H   0  0  0  0  0  0  0  0  0  0  0  0
  1  2  3  0
  1 51  1  0
  3  2  1  6
  3  4  1  0
  3  6  1  0
  3 19  1  0
  4  5  1  0
  6  7  1  0
  6 15  1  0
  6 47  1  1
  7  8  1  0
  7  9  1  0
  7 46  1  0
  9 10  1  0
  9 11  1  0
  9 12  1  0
 12 13  1  6
 12 14  1  0
 12 33  1  0
 14 15  1  0
 14 23  1  0
 14 45  1  1
 15 16  1  0
 15 22  1  6
 16 17  1  0
 16 18  1  0
 16 19  1  0
 19 20  1  0
 19 21  1  0
 23 24  1  0
 23 43  1  0
 23 44  1  0
 24 25  1  0
 24 41  1  0
 24 42  1  0
 25 26  2  0
 25 33  1  0
 26 27  1  0
 26 40  1  0
 27 28  2  0
 27 29  1  0
 29 30  1  0
 29 38  1  0
 29 39  1  0
 30 31  1  0
 30 32  1  0
 30 33  1  0
 33 34  1  1
 34 35  1  0
 34 36  1  0
 34 37  1  0
 47 48  1  0
 47 49  1  0
 47 50  1  0
M  END
$$$$
