
     RDKit          3D

 53 56  0  0  0  0  0  0  0  0999 V2000
   -3.0463   -0.7091    1.4782 C   0  0  0  0  0  0  0  0  0  0  0  0
   -3.5492   -1.6625    1.6348 H   0  0  0  0  0  0  0  0  0  0  0  0
   -3.6861    0.0888    1.8470 H   0  0  0  0  0  0  0  0  0  0  0  0
   -2.1419   -0.7134    2.0772 H   0  0  0  0  0  0  0  0  0  0  0  0
   -2.7354   -0.5358   -0.0120 C   0  0  2  0  0  0  0  0  0  0  0  0
   -1.9303   -1.7251   -0.5273 C   0  0  0  0  0  0  0  0  0  0  0  0
   -0.5240   -1.7257    0.0793 C   0  0  0  0  0  0  0  0  0  0  0  0
   -0.5954   -1.9105    1.1501 H   0  0  0  0  0  0  0  0  0  0  0  0
    0.0305   -2.5546   -0.3617 H   0  0  0  0  0  0  0  0  0  0  0  0
    0.2315   -0.4127   -0.1749 C   0  0  1  0  0  0  0  0  0  0  0  0
    0.3197   -0.2993   -1.2639 H   0  0  0  0  0  0  0  0  0  0  0  0
   -0.5859    0.7959    0.3277 C   0  0  2  0  0  0  0  0  0  0  0  0
   -1.9541    0.7431   -0.3448 C   0  0  2  0  0  0  0  0  0  0  0  0
   -2.9609    1.8620   -0.0714 C   0  0  0  0  0  0  0  0  0  0  0  0
   -2.7237    2.7673   -0.6278 H   0  0  0  0  0  0  0  0  0  0  0  0
   -2.9732    2.1156    0.9891 H   0  0  0  0  0  0  0  0  0  0  0  0
   -4.3052    1.2583   -0.5193 C   0  0  0  0  0  0  0  0  0  0  0  0
   -4.6782    1.7382   -1.4224 H   0  0  0  0  0  0  0  0  0  0  0  0
   -5.0724    1.3754    0.2482 H   0  0  0  0  0  0  0  0  0  0  0  0
   -4.0529   -0.2504   -0.7733 C   0  0  2  0  0  0  0  0  0  0  0  0
   -5.1409   -1.0705   -0.4481 O   0  0  0  0  0  0  0  0  0  0  0  0
   -5.3410   -0.9555    0.4880 H   0  0  0  0  0  0  0  0  0  0  0  0
   -3.8934   -0.4278   -1.8417 H   0  0  0  0  0  0  0  0  0  0  0  0
   -1.7796    0.7293   -1.4284 H   0  0  0  0  0  0  0  0  0  0  0  0
    0.1266    2.1098    0.0077 C   0  0  0  0  0  0  0  0  0  0  0  0
    1.5480    2.1160    0.5558 C   0  0  0  0  0  0  0  0  0  0  0  0
    2.3267    0.9288   -0.0048 C   0  0  1  0  0  0  0  0  0  0  0  0
    3.8075    1.0128    0.3705 C   0  0  0  0  0  0  0  0  0  0  0  0
    3.9313    0.9871    1.4532 H   0  0  0  0  0  0  0  0  0  0  0  0
    4.6254   -0.1218   -0.2581 C   0  0  1  0  0  0  0  0  0  0  0  0
    3.9900   -1.4772    0.0688 C   0  0  0  0  0  0  0  0  0  0  0  0
    2.5036   -1.5294   -0.2856 C   0  0  0  0  0  0  0  0  0  0  0  0
    2.1240   -2.5083    0.0098 H   0  0  0  0  0  0  0  0  0  0  0  0
    2.3860   -1.4511   -1.3705 H   0  0  0  0  0  0  0  0  0  0  0  0
    1.6790   -0.4173    0.3916 C   0  0  2  0  0  0  0  0  0  0  0  0
    1.6798   -0.6478    1.9063 C   0  0  0  0  0  0  0  0  0  0  0  0
    2.6589   -0.4522    2.3319 H   0  0  0  0  0  0  0  0  0  0  0  0
    0.9652   -0.0055    2.4109 H   0  0  0  0  0  0  0  0  0  0  0  0
    1.4242   -1.6813    2.1269 H   0  0  0  0  0  0  0  0  0  0  0  0
    4.1268   -1.6820    1.1305 H   0  0  0  0  0  0  0  0  0  0  0  0
    4.5190   -2.2530   -0.4894 H   0  0  0  0  0  0  0  0  0  0  0  0
    4.7983    0.0593   -1.6467 O   0  0  0  0  0  0  0  0  0  0  0  0
    3.9296    0.0281   -2.0627 H   0  0  0  0  0  0  0  0  0  0  0  0
    5.6463   -0.0954    0.1406 H   0  0  0  0  0  0  0  0  0  0  0  0
    4.2102    1.9648    0.0167 H   0  0  0  0  0  0  0  0  0  0  0  0
    2.2611    1.0006   -1.0992 H   0  0  0  0  0  0  0  0  0  0  0  0
    1.5328    2.0755    1.6455 H   0  0  0  0  0  0  0  0  0  0  0  0
    2.0463    3.0450    0.2687 H   0  0  0  0  0  0  0  0  0  0  0  0
   -0.4371    2.9433    0.4304 H   0  0  0  0  0  0  0  0  0  0  0  0
    0.1587    2.2462   -1.0765 H   0  0  0  0  0  0  0  0  0  0  0  0
   -0.7148    0.7349    1.4103 H   0  0  0  0  0  0  0  0  0  0  0  0
   -2.4348   -2.6629   -0.2868 H   0  0  0  0  0  0  0  0  0  0  0  0
   -1.8538   -1.6612   -1.6155 H   0  0  0  0  0  0  0  0  0  0  0  0
  1  2  1  0
  1  3  1  0
  1  4  1  0
  5  1  1  1
  5  6  1  0
  5 13  1  0
  5 20  1  0
  6  7  1  0
  6 52  1  0
  6 53  1  0
  7  8  1  0
  7  9  1  0
  7 10  1  0
 10 11  1  6
 10 12  1  0
 10 35  1  0
 12 13  1  0
 12 25  1  0
 12 51  1  1
 13 14  1  0
 13 24  1  6
 14 15  1  0
 14 16  1  0
 14 17  1  0
 17 18  1  0
 17 19  1  0
 17 20  1  0
 20 21  1  0
 20 23  1  6
 21 22  1  0
 25 26  1  0
 25 49  1  0
 25 50  1  0
 26 27  1  0
 26 47  1  0
 26 48  1  0
 27 28  1  0
 27 35  1  0
 27 46  1  6
 28 29  1  0
 28 30  1  0
 28 45  1  0
 30 31  1  0
 30 42  1  0
 30 44  1  1
 31 32  1  0
 31 40  1  0
 31 41  1  0
 32 33  1  0
 32 34  1  0
 32 35  1  0
 35 36  1  1
 36 37  1  0
 36 38  1  0
 36 39  1  0
 42 43  1  0
M  END
$$$$

     RDKit          3D

 53 56  0  0  0  0  0  0  0  0999 V2000
   -3.0426   -0.7071    1.4790 C   0  0  0  0  0  0  0  0  0  0  0  0
   -3.5452   -1.6607    1.6355 H   0  0  0  0  0  0  0  0  0  0  0  0
   -3.6836    0.0909    1.8455 H   0  0  0  0  0  0  0  0  0  0  0  0
   -2.1395   -0.7103    2.0798 H   0  0  0  0  0  0  0  0  0  0  0  0
   -2.7274   -0.5349   -0.0105 C   0  0  2  0  0  0  0  0  0  0  0  0
   -1.9212   -1.7247   -0.5231 C   0  0  0  0  0  0  0  0  0  0  0  0
   -0.5168   -1.7256    0.0878 C   0  0  0  0  0  0  0  0  0  0  0  0
   -0.5924   -1.9099    1.1585 H   0  0  0  0  0  0  0  0  0  0  0  0
    0.0392   -2.5543   -0.3510 H   0  0  0  0  0  0  0  0  0  0  0  0
    0.2408   -0.4137   -0.1656 C   0  0  1  0  0  0  0  0  0  0  0  0
    0.3338   -0.3012   -1.2534 H   0  0  0  0  0  0  0  0  0  0  0  0
   -0.5773    0.7953    0.3346 C   0  0  2  0  0  0  0  0  0  0  0  0
   -1.9440    0.7431   -0.3412 C   0  0  2  0  0  0  0  0  0  0  0  0
   -2.9508    1.8631   -0.0718 C   0  0  0  0  0  0  0  0  0  0  0  0
   -2.7113    2.7676   -0.6287 H   0  0  0  0  0  0  0  0  0  0  0  0
   -2.9660    2.1181    0.9883 H   0  0  0  0  0  0  0  0  0  0  0  0
   -4.2945    1.2604   -0.5228 C   0  0  0  0  0  0  0  0  0  0  0  0
   -4.6651    1.7402   -1.4269 H   0  0  0  0  0  0  0  0  0  0  0  0
   -5.0635    1.3780    0.2429 H   0  0  0  0  0  0  0  0  0  0  0  0
   -4.0424   -0.2487   -0.7755 C   0  0  2  0  0  0  0  0  0  0  0  0
   -5.1329   -1.0672   -0.4531 O   0  0  0  0  0  0  0  0  0  0  0  0
   -5.3301   -0.9566    0.4842 H   0  0  0  0  0  0  0  0  0  0  0  0
   -3.8802   -0.4264   -1.8434 H   0  0  0  0  0  0  0  0  0  0  0  0
   -1.7657    0.7283   -1.4241 H   0  0  0  0  0  0  0  0  0  0  0  0
    0.1363    2.1079    0.0130 C   0  0  0  0  0  0  0  0  0  0  0  0
    1.5544    2.1137    0.5685 C   0  0  0  0  0  0  0  0  0  0  0  0
    2.3344    0.9266    0.0118 C   0  0  1  0  0  0  0  0  0  0  0  0
    3.8140    1.0035    0.3903 C   0  0  0  0  0  0  0  0  0  0  0  0
    3.9482    0.9387    1.4702 H   0  0  0  0  0  0  0  0  0  0  0  0
    4.6082   -0.1165   -0.2858 C   0  0  1  0  0  0  0  0  0  0  0  0
    3.9978   -1.4742    0.0537 C   0  0  0  0  0  0  0  0  0  0  0  0
    2.5110   -1.5239   -0.2906 C   0  0  0  0  0  0  0  0  0  0  0  0
    2.1325   -2.5081   -0.0129 H   0  0  0  0  0  0  0  0  0  0  0  0
    2.4122   -1.4137   -1.3718 H   0  0  0  0  0  0  0  0  0  0  0  0
    1.6878   -0.4214    0.4018 C   0  0  2  0  0  0  0  0  0  0  0  0
    1.6871   -0.6641    1.9146 C   0  0  0  0  0  0  0  0  0  0  0  0
    0.9767   -0.0211    2.4248 H   0  0  0  0  0  0  0  0  0  0  0  0
    1.4247   -1.6978    2.1259 H   0  0  0  0  0  0  0  0  0  0  0  0
    2.6673   -0.4804    2.3433 H   0  0  0  0  0  0  0  0  0  0  0  0
    4.1565   -1.6783    1.1126 H   0  0  0  0  0  0  0  0  0  0  0  0
    4.5208   -2.2395   -0.5218 H   0  0  0  0  0  0  0  0  0  0  0  0
    4.6108    0.0156   -1.6939 O   0  0  0  0  0  0  0  0  0  0  0  0
    4.8980    0.9066   -1.9196 H   0  0  0  0  0  0  0  0  0  0  0  0
    5.6511   -0.0889    0.0793 H   0  0  0  0  0  0  0  0  0  0  0  0
    4.2127    1.9727    0.0728 H   0  0  0  0  0  0  0  0  0  0  0  0
    2.2888    0.9855   -1.0827 H   0  0  0  0  0  0  0  0  0  0  0  0
    1.5325    2.0722    1.6584 H   0  0  0  0  0  0  0  0  0  0  0  0
    2.0530    3.0446    0.2861 H   0  0  0  0  0  0  0  0  0  0  0  0
   -0.4290    2.9438    0.4294 H   0  0  0  0  0  0  0  0  0  0  0  0
    0.1753    2.2386   -1.0715 H   0  0  0  0  0  0  0  0  0  0  0  0
   -0.7079    0.7366    1.4174 H   0  0  0  0  0  0  0  0  0  0  0  0
   -2.4273   -2.6622   -0.2840 H   0  0  0  0  0  0  0  0  0  0  0  0
   -1.8409   -1.6609   -1.6109 H   0  0  0  0  0  0  0  0  0  0  0  0
  1  2  1  0
  1  3  1  0
  1  4  1  0
  5  1  1  1
  5  6  1  0
  5 13  1  0
  5 20  1  0
  6  7  1  0
  6 52  1  0
  6 53  1  0
  7  8  1  0
  7  9  1  0
  7 10  1  0
 10 11  1  6
 10 12  1  0
 10 35  1  0
 12 13  1  0
 12 25  1  0
 12 51  1  1
 13 14  1  0
 13 24  1  6
 14 15  1  0
 14 16  1  0
 14 17  1  0
 17 18  1  0
 17 19  1  0
 17 20  1  0
 20 21  1  0
 20 23  1  6
 21 22  1  0
 25 26  1  0
 25 49  1  0
 25 50  1  0
 26 27  1  0
 26 47  1  0
 26 48  1  0
 27 28  1  0
 27 35  1  0
 27 46  1  6
 28 29  1  0
 28 30  1  0
 28 45  1  0
 30 31  1  0
 30 42  1  0
 30 44  1  1
 31 32  1  0
 31 40  1  0
 31 41  1  0
 32 33  1  0
 32 34  1  0
 32 35  1  0
 35 36  1  1
 36 37  1  0
 36 38  1  0
 36 39  1  0
 42 43  1  0
M  END
$$$$

     RDKit          3D

 53 56  0  0  0  0  0  0  0  0999 V2000
   -3.0546   -0.6178    1.5634 C   0  0  0  0  0  0  0  0  0  0  0  0
   -3.6978    0.1899    1.9039 H   0  0  0  0  0  0  0  0  0  0  0  0
   -2.1312   -0.5667    2.1304 H   0  0  0  0  0  0  0  0  0  0  0  0
   -3.5328   -1.5684    1.7960 H   0  0  0  0  0  0  0  0  0  0  0  0
   -2.7965   -0.5311    0.0554 C   0  0  2  0  0  0  0  0  0  0  0  0
   -2.0102   -1.7501   -0.4202 C   0  0  0  0  0  0  0  0  0  0  0  0
   -0.5862   -1.7130    0.1410 C   0  0  0  0  0  0  0  0  0  0  0  0
   -0.6319   -1.8126    1.2240 H   0  0  0  0  0  0  0  0  0  0  0  0
   -0.0388   -2.5749   -0.2423 H   0  0  0  0  0  0  0  0  0  0  0  0
    0.1579   -0.4225   -0.2331 C   0  0  1  0  0  0  0  0  0  0  0  0
    0.1913   -0.3713   -1.3296 H   0  0  0  0  0  0  0  0  0  0  0  0
   -0.6329    0.8153    0.2347 C   0  0  2  0  0  0  0  0  0  0  0  0
   -2.0287    0.7267   -0.3754 C   0  0  2  0  0  0  0  0  0  0  0  0
   -3.0256    1.8597   -0.1243 C   0  0  0  0  0  0  0  0  0  0  0  0
   -2.8094    2.7346   -0.7352 H   0  0  0  0  0  0  0  0  0  0  0  0
   -2.9998    2.1679    0.9213 H   0  0  0  0  0  0  0  0  0  0  0  0
   -4.3845    1.2348   -0.4921 C   0  0  0  0  0  0  0  0  0  0  0  0
   -4.7883    1.6655   -1.4067 H   0  0  0  0  0  0  0  0  0  0  0  0
   -5.1251    1.3947    0.2935 H   0  0  0  0  0  0  0  0  0  0  0  0
   -4.1405   -0.2861   -0.6726 C   0  0  2  0  0  0  0  0  0  0  0  0
   -5.2156   -1.0860   -0.2643 O   0  0  0  0  0  0  0  0  0  0  0  0
   -5.3758   -0.9266    0.6730 H   0  0  0  0  0  0  0  0  0  0  0  0
   -4.0198   -0.5214   -1.7349 H   0  0  0  0  0  0  0  0  0  0  0  0
   -1.8976    0.6541   -1.4628 H   0  0  0  0  0  0  0  0  0  0  0  0
    0.0711    2.0987   -0.2025 C   0  0  0  0  0  0  0  0  0  0  0  0
    1.5053    2.1312    0.3071 C   0  0  0  0  0  0  0  0  0  0  0  0
    2.2781    0.9119   -0.1920 C   0  0  1  0  0  0  0  0  0  0  0  0
    3.7515    1.0173    0.2240 C   0  0  0  0  0  0  0  0  0  0  0  0
    3.8249    1.3549    1.2584 H   0  0  0  0  0  0  0  0  0  0  0  0
    4.5277   -0.2996    0.0443 C   0  0  1  0  0  0  0  0  0  0  0  0
    3.7922   -1.1915   -0.9538 C   0  0  0  0  0  0  0  0  0  0  0  0
    2.4026   -1.5756   -0.4390 C   0  0  0  0  0  0  0  0  0  0  0  0
    2.5090   -2.4012    0.2659 H   0  0  0  0  0  0  0  0  0  0  0  0
    1.8289   -1.9464   -1.2902 H   0  0  0  0  0  0  0  0  0  0  0  0
    1.6334   -0.4181    0.2522 C   0  0  2  0  0  0  0  0  0  0  0  0
    1.7152   -0.5934    1.7727 C   0  0  0  0  0  0  0  0  0  0  0  0
    1.3472   -1.5741    2.0628 H   0  0  0  0  0  0  0  0  0  0  0  0
    2.7420   -0.5133    2.1139 H   0  0  0  0  0  0  0  0  0  0  0  0
    1.1276    0.1569    2.2928 H   0  0  0  0  0  0  0  0  0  0  0  0
    4.3781   -2.0959   -1.1290 H   0  0  0  0  0  0  0  0  0  0  0  0
    3.7154   -0.6619   -1.9074 H   0  0  0  0  0  0  0  0  0  0  0  0
    5.8673   -0.0720   -0.3390 O   0  0  0  0  0  0  0  0  0  0  0  0
    5.8704    0.3448   -1.2088 H   0  0  0  0  0  0  0  0  0  0  0  0
    4.6176   -0.8308    0.9969 H   0  0  0  0  0  0  0  0  0  0  0  0
    4.2293    1.7853   -0.3915 H   0  0  0  0  0  0  0  0  0  0  0  0
    2.2270    0.9322   -1.2866 H   0  0  0  0  0  0  0  0  0  0  0  0
    1.5115    2.1610    1.3975 H   0  0  0  0  0  0  0  0  0  0  0  0
    2.0013    3.0383   -0.0469 H   0  0  0  0  0  0  0  0  0  0  0  0
   -0.4752    2.9650    0.1746 H   0  0  0  0  0  0  0  0  0  0  0  0
    0.0726    2.1544   -1.2942 H   0  0  0  0  0  0  0  0  0  0  0  0
   -0.7091    0.8211    1.3242 H   0  0  0  0  0  0  0  0  0  0  0  0
   -2.5064   -2.6714   -0.1091 H   0  0  0  0  0  0  0  0  0  0  0  0
   -1.9708   -1.7485   -1.5122 H   0  0  0  0  0  0  0  0  0  0  0  0
  1  2  1  0
  1  3  1  0
  1  4  1  0
  5  1  1  1
  5  6  1  0
  5 13  1  0
  5 20  1  0
  6  7  1  0
  6 52  1  0
  6 53  1  0
  7  8  1  0
  7  9  1  0
  7 10  1  0
 10 11  1  6
 10 12  1  0
 10 35  1  0
 12 13  1  0
 12 25  1  0
 12 51  1  1
 13 14  1  0
 13 24  1  6
 14 15  1  0
 14 16  1  0
 14 17  1  0
 17 18  1  0
 17 19  1  0
 17 20  1  0
 20 21  1  0
 20 23  1  6
 21 22  1  0
 25 26  1  0
 25 49  1  0
 25 50  1  0
 26 27  1  0
 26 47  1  0
 26 48  1  0
 27 28  1  0
 27 35  1  0
 27 46  1  6
 28 29  1  0
 28 30  1  0
 28 45  1  0
 30 31  1  0
 30 42  1  0
 30 44  1  1
 31 32  1  0
 31 40  1  0
 31 41  1  0
 32 33  1  0
 32 34  1  0
 32 35  1  0
 35 36  1  1
 36 37  1  0
 36 38  1  0
 36 39  1  0
 42 43  1  0
M  END
$$$$
