
     RDKit          3D

  5  4  0  0  0  0  0  0  0  0999 V2000
   -0.0000   -0.0000    0.0000 C   0  0  0  0  0  0  0  0  0  0  0  0
   -0.8716   -0.0371    0.6403 H   0  0  0  0  0  0  0  0  0  0  0  0
    0.7334   -0.7161    0.3471 H   0  0  0  0  0  0  0  0  0  0  0  0
    0.4258    0.9945    0.0275 H   0  0  0  0  0  0  0  0  0  0  0  0
   -0.2876   -0.2413   -1.0150 H   0  0  0  0  0  0  0  0  0  0  0  0
  1  2  1  0
  1  3  1  0
  1  4  1  0
  1  5  1  0
M  END
$$$$
