
     RDKit          3D

 30 31  0  0  0  0  0  0  0  0999 V2000
   -4.3054   -0.1476    0.0244 C   0  0  0  0  0  0  0  0  0  0  0  0
   -4.6000    0.8521    0.3357 H   0  0  0  0  0  0  0  0  0  0  0  0
   -4.4810   -0.8334    0.8495 H   0  0  0  0  0  0  0  0  0  0  0  0
   -4.9347   -0.4468   -0.8099 H   0  0  0  0  0  0  0  0  0  0  0  0
   -2.8364   -0.1643   -0.3874 C   0  0  1  0  0  0  0  0  0  0  0  0
   -2.5905    0.7910   -1.5516 C   0  0  0  0  0  0  0  0  0  0  0  0
   -3.2454    0.5481   -2.3850 H   0  0  0  0  0  0  0  0  0  0  0  0
   -1.5614    0.7253   -1.8992 H   0  0  0  0  0  0  0  0  0  0  0  0
   -2.7814    1.8173   -1.2461 H   0  0  0  0  0  0  0  0  0  0  0  0
   -1.9732    0.2172    0.8216 C   0  0  0  0  0  0  0  0  0  0  0  0
   -0.5567    0.1979    0.5092 N   0  0  0  0  0  0  0  0  0  0  0  0
    0.0850   -0.9788    0.2918 C   0  0  0  0  0  0  0  0  0  0  0  0
    1.4277   -1.0282   -0.0492 C   0  0  0  0  0  0  0  0  0  0  0  0
    1.7161   -2.3658   -0.1749 N   0  0  0  0  0  0  0  0  0  0  0  0
    0.5721   -3.0270    0.0889 C   0  0  0  0  0  0  0  0  0  0  0  0
   -0.4298   -2.2298    0.3729 N   0  0  0  0  0  0  0  0  0  0  0  0
    0.4901   -4.0951    0.0674 H   0  0  0  0  0  0  0  0  0  0  0  0
    2.6179   -2.7425   -0.4168 H   0  0  0  0  0  0  0  0  0  0  0  0
    2.2349    0.1445   -0.2058 C   0  0  0  0  0  0  0  0  0  0  0  0
    3.4114    0.1798   -0.5096 O   0  0  0  0  0  0  0  0  0  0  0  0
    1.4857    1.2965    0.0399 N   0  0  0  0  0  0  0  0  0  0  0  0
    0.1416    1.3821    0.3869 C   0  0  0  0  0  0  0  0  0  0  0  0
   -0.3811    2.4573    0.5793 O   0  0  0  0  0  0  0  0  0  0  0  0
    2.1687    2.5751   -0.0724 C   0  0  0  0  0  0  0  0  0  0  0  0
    2.1234    3.1029    0.8797 H   0  0  0  0  0  0  0  0  0  0  0  0
    3.2011    2.3726   -0.3472 H   0  0  0  0  0  0  0  0  0  0  0  0
    1.6844    3.1873   -0.8326 H   0  0  0  0  0  0  0  0  0  0  0  0
   -2.1464   -0.4913    1.6350 H   0  0  0  0  0  0  0  0  0  0  0  0
   -2.2088    1.2313    1.1509 H   0  0  0  0  0  0  0  0  0  0  0  0
   -2.5624   -1.1803   -0.6893 H   0  0  0  0  0  0  0  0  0  0  0  0
  1  2  1  0
  1  3  1  0
  1  4  1  0
  1  5  1  0
  5  6  1  0
  5 10  1  0
  5 30  1  6
  6  7  1  0
  6  8  1  0
  6  9  1  0
 10 11  1  0
 10 28  1  0
 10 29  1  0
 11 12  1  0
 11 22  1  0
 12 13  2  0
 12 16  1  0
 13 14  1  0
 13 19  1  0
 14 15  1  0
 14 18  1  0
 15 16  2  0
 15 17  1  0
 19 20  2  0
 19 21  1  0
 21 22  1  0
 21 24  1  0
 22 23  2  0
 24 25  1  0
 24 26  1  0
 24 27  1  0
M  END
$$$$

     RDKit          3D

 30 31  0  0  0  0  0  0  0  0999 V2000
   -2.5797   -0.6950   -1.5015 C   0  0  0  0  0  0  0  0  0  0  0  0
   -1.5596   -0.6064   -1.8691 H   0  0  0  0  0  0  0  0  0  0  0  0
   -3.2547   -0.5582   -2.3429 H   0  0  0  0  0  0  0  0  0  0  0  0
   -2.7137   -1.6992   -1.1054 H   0  0  0  0  0  0  0  0  0  0  0  0
   -2.8655    0.3442   -0.4213 C   0  0  1  0  0  0  0  0  0  0  0  0
   -4.3309    0.2947    0.0005 C   0  0  0  0  0  0  0  0  0  0  0  0
   -4.5355    1.0390    0.7659 H   0  0  0  0  0  0  0  0  0  0  0  0
   -4.5778   -0.6879    0.3967 H   0  0  0  0  0  0  0  0  0  0  0  0
   -4.9756    0.4938   -0.8516 H   0  0  0  0  0  0  0  0  0  0  0  0
   -1.9824    0.1094    0.8112 C   0  0  0  0  0  0  0  0  0  0  0  0
   -0.5668    0.1665    0.4953 N   0  0  0  0  0  0  0  0  0  0  0  0
    0.1585   -0.9705    0.3374 C   0  0  0  0  0  0  0  0  0  0  0  0
    1.5015   -0.9384   -0.0040 C   0  0  0  0  0  0  0  0  0  0  0  0
    1.8878   -2.2558   -0.0609 N   0  0  0  0  0  0  0  0  0  0  0  0
    0.7954   -2.9849    0.2408 C   0  0  0  0  0  0  0  0  0  0  0  0
   -0.2624   -2.2502    0.4866 N   0  0  0  0  0  0  0  0  0  0  0  0
    0.7928   -4.0557    0.2755 H   0  0  0  0  0  0  0  0  0  0  0  0
    2.8149   -2.5779   -0.2857 H   0  0  0  0  0  0  0  0  0  0  0  0
    2.2150    0.2855   -0.2156 C   0  0  0  0  0  0  0  0  0  0  0  0
    3.3846    0.4084   -0.5210 O   0  0  0  0  0  0  0  0  0  0  0  0
    1.3848    1.3909   -0.0240 N   0  0  0  0  0  0  0  0  0  0  0  0
    0.0354    1.3935    0.3170 C   0  0  0  0  0  0  0  0  0  0  0  0
   -0.5849    2.4247    0.4593 O   0  0  0  0  0  0  0  0  0  0  0  0
    2.0229    2.6845   -0.2088 C   0  0  0  0  0  0  0  0  0  0  0  0
    2.8543    2.7819    0.4891 H   0  0  0  0  0  0  0  0  0  0  0  0
    2.4123    2.7559   -1.2243 H   0  0  0  0  0  0  0  0  0  0  0  0
    1.2823    3.4590   -0.0294 H   0  0  0  0  0  0  0  0  0  0  0  0
   -2.1697   -0.8813    1.2275 H   0  0  0  0  0  0  0  0  0  0  0  0
   -2.1885    0.8803    1.5578 H   0  0  0  0  0  0  0  0  0  0  0  0
   -2.6416    1.3418   -0.8118 H   0  0  0  0  0  0  0  0  0  0  0  0
  1  2  1  0
  1  3  1  0
  1  4  1  0
  1  5  1  0
  5  6  1  0
  5 10  1  0
  5 30  1  6
  6  7  1  0
  6  8  1  0
  6  9  1  0
 10 11  1  0
 10 28  1  0
 10 29  1  0
 11 12  1  0
 11 22  1  0
 12 13  2  0
 12 16  1  0
 13 14  1  0
 13 19  1  0
 14 15  1  0
 14 18  1  0
 15 16  2  0
 15 17  1  0
 19 20  2  0
 19 21  1  0
 21 22  1  0
 21 24  1  0
 22 23  2  0
 24 25  1  0
 24 26  1  0
 24 27  1  0
M  END
$$$$

     RDKit          3D

 30 31  0  0  0  0  0  0  0  0999 V2000
   -2.8601   -1.2205    1.0114 C   0  0  0  0  0  0  0  0  0  0  0  0
   -1.9166   -1.2023    1.5521 H   0  0  0  0  0  0  0  0  0  0  0  0
   -2.8730   -2.1065    0.3824 H   0  0  0  0  0  0  0  0  0  0  0  0
   -3.6652   -1.2938    1.7389 H   0  0  0  0  0  0  0  0  0  0  0  0
   -3.0253    0.0440    0.1730 C   0  0  1  0  0  0  0  0  0  0  0  0
   -2.9142    1.2873    1.0511 C   0  0  0  0  0  0  0  0  0  0  0  0
   -1.9680    1.2940    1.5883 H   0  0  0  0  0  0  0  0  0  0  0  0
   -3.7190    1.3034    1.7824 H   0  0  0  0  0  0  0  0  0  0  0  0
   -2.9675    2.1912    0.4505 H   0  0  0  0  0  0  0  0  0  0  0  0
   -2.0286    0.0859   -0.9971 C   0  0  0  0  0  0  0  0  0  0  0  0
   -0.6409    0.1456   -0.5760 N   0  0  0  0  0  0  0  0  0  0  0  0
    0.0743   -0.9893   -0.3621 C   0  0  0  0  0  0  0  0  0  0  0  0
    1.3919   -0.9523    0.0679 C   0  0  0  0  0  0  0  0  0  0  0  0
    1.7781   -2.2683    0.1551 N   0  0  0  0  0  0  0  0  0  0  0  0
    0.7121   -3.0018   -0.2203 C   0  0  0  0  0  0  0  0  0  0  0  0
   -0.3289   -2.2714   -0.5388 N   0  0  0  0  0  0  0  0  0  0  0  0
    0.7156   -4.0727   -0.2542 H   0  0  0  0  0  0  0  0  0  0  0  0
    2.6896   -2.5852    0.4421 H   0  0  0  0  0  0  0  0  0  0  0  0
    2.1017    0.2688    0.3042 C   0  0  0  0  0  0  0  0  0  0  0  0
    3.2465    0.3780    0.6984 O   0  0  0  0  0  0  0  0  0  0  0  0
    1.2981    1.3712    0.0094 N   0  0  0  0  0  0  0  0  0  0  0  0
   -0.0161    1.3699   -0.4473 C   0  0  0  0  0  0  0  0  0  0  0  0
   -0.5759    2.4080   -0.7215 O   0  0  0  0  0  0  0  0  0  0  0  0
    1.8908    2.6904    0.1578 C   0  0  0  0  0  0  0  0  0  0  0  0
    1.2991    3.2843    0.8535 H   0  0  0  0  0  0  0  0  0  0  0  0
    2.9017    2.5553    0.5349 H   0  0  0  0  0  0  0  0  0  0  0  0
    1.9085    3.1993   -0.8056 H   0  0  0  0  0  0  0  0  0  0  0  0
   -2.2160    0.9768   -1.6012 H   0  0  0  0  0  0  0  0  0  0  0  0
   -2.1392   -0.8137   -1.6054 H   0  0  0  0  0  0  0  0  0  0  0  0
   -4.0201    0.0290   -0.2862 H   0  0  0  0  0  0  0  0  0  0  0  0
  1  2  1  0
  1  3  1  0
  1  4  1  0
  1  5  1  0
  5  6  1  0
  5 10  1  0
  5 30  1  6
  6  7  1  0
  6  8  1  0
  6  9  1  0
 10 11  1  0
 10 28  1  0
 10 29  1  0
 11 12  1  0
 11 22  1  0
 12 13  2  0
 12 16  1  0
 13 14  1  0
 13 19  1  0
 14 15  1  0
 14 18  1  0
 15 16  2  0
 15 17  1  0
 19 20  2  0
 19 21  1  0
 21 22  1  0
 21 24  1  0
 22 23  2  0
 24 25  1  0
 24 26  1  0
 24 27  1  0
M  END
$$$$

     RDKit          3D

 30 31  0  0  0  0  0  0  0  0999 V2000
   -2.8461   -1.2087    1.0303 C   0  0  0  0  0  0  0  0  0  0  0  0
   -2.8478   -2.1027    0.4126 H   0  0  0  0  0  0  0  0  0  0  0  0
   -3.6511   -1.2822    1.7580 H   0  0  0  0  0  0  0  0  0  0  0  0
   -1.9035   -1.1721    1.5718 H   0  0  0  0  0  0  0  0  0  0  0  0
   -3.0251    0.0430    0.1756 C   0  0  1  0  0  0  0  0  0  0  0  0
   -2.9283    1.2986    1.0378 C   0  0  0  0  0  0  0  0  0  0  0  0
   -1.9809    1.3251    1.5722 H   0  0  0  0  0  0  0  0  0  0  0  0
   -3.7315    1.3130    1.7710 H   0  0  0  0  0  0  0  0  0  0  0  0
   -2.9956    2.1940    0.4261 H   0  0  0  0  0  0  0  0  0  0  0  0
   -2.0290    0.0805   -0.9952 C   0  0  0  0  0  0  0  0  0  0  0  0
   -0.6410    0.1457   -0.5747 N   0  0  0  0  0  0  0  0  0  0  0  0
    0.0735   -0.9900   -0.3607 C   0  0  0  0  0  0  0  0  0  0  0  0
    1.3909   -0.9552    0.0691 C   0  0  0  0  0  0  0  0  0  0  0  0
    1.7760   -2.2715    0.1545 N   0  0  0  0  0  0  0  0  0  0  0  0
    0.7087   -3.0035   -0.2212 C   0  0  0  0  0  0  0  0  0  0  0  0
   -0.3314   -2.2716   -0.5385 N   0  0  0  0  0  0  0  0  0  0  0  0
    0.7111   -4.0743   -0.2562 H   0  0  0  0  0  0  0  0  0  0  0  0
    2.6871   -2.5901    0.4409 H   0  0  0  0  0  0  0  0  0  0  0  0
    2.0964    0.2692    0.3009 C   0  0  0  0  0  0  0  0  0  0  0  0
    3.2397    0.3928    0.6934 O   0  0  0  0  0  0  0  0  0  0  0  0
    1.2941    1.3722    0.0058 N   0  0  0  0  0  0  0  0  0  0  0  0
   -0.0204    1.3725   -0.4526 C   0  0  0  0  0  0  0  0  0  0  0  0
   -0.5910    2.4036   -0.7332 O   0  0  0  0  0  0  0  0  0  0  0  0
    1.9319    2.6685    0.1729 C   0  0  0  0  0  0  0  0  0  0  0  0
    1.1700    3.4391    0.0921 H   0  0  0  0  0  0  0  0  0  0  0  0
    2.4160    2.7005    1.1481 H   0  0  0  0  0  0  0  0  0  0  0  0
    2.6901    2.8117   -0.5977 H   0  0  0  0  0  0  0  0  0  0  0  0
   -2.2195    0.9663   -1.6056 H   0  0  0  0  0  0  0  0  0  0  0  0
   -2.1370   -0.8238   -1.5968 H   0  0  0  0  0  0  0  0  0  0  0  0
   -4.0196    0.0112   -0.2834 H   0  0  0  0  0  0  0  0  0  0  0  0
  1  2  1  0
  1  3  1  0
  1  4  1  0
  1  5  1  0
  5  6  1  0
  5 10  1  0
  5 30  1  6
  6  7  1  0
  6  8  1  0
  6  9  1  0
 10 11  1  0
 10 28  1  0
 10 29  1  0
 11 12  1  0
 11 22  1  0
 12 13  2  0
 12 16  1  0
 13 14  1  0
 13 19  1  0
 14 15  1  0
 14 18  1  0
 15 16  2  0
 15 17  1  0
 19 20  2  0
 19 21  1  0
 21 22  1  0
 21 24  1  0
 22 23  2  0
 24 25  1  0
 24 26  1  0
 24 27  1  0
M  END
$$$$

     RDKit          3D

 30 31  0  0  0  0  0  0  0  0999 V2000
   -3.6796   -1.3251   -0.6264 C   0  0  0  0  0  0  0  0  0  0  0  0
   -3.0631   -2.2205   -0.6258 H   0  0  0  0  0  0  0  0  0  0  0  0
   -4.2370   -1.2870   -1.5595 H   0  0  0  0  0  0  0  0  0  0  0  0
   -4.3897   -1.3907    0.1951 H   0  0  0  0  0  0  0  0  0  0  0  0
   -2.8058   -0.0830   -0.4747 C   0  0  1  0  0  0  0  0  0  0  0  0
   -3.6483    1.1893   -0.4574 C   0  0  0  0  0  0  0  0  0  0  0  0
   -4.2153    1.2812   -1.3808 H   0  0  0  0  0  0  0  0  0  0  0  0
   -3.0073    2.0614   -0.3526 H   0  0  0  0  0  0  0  0  0  0  0  0
   -4.3494    1.1672    0.3741 H   0  0  0  0  0  0  0  0  0  0  0  0
   -1.9407   -0.1781    0.8007 C   0  0  0  0  0  0  0  0  0  0  0  0
   -0.5226   -0.1903    0.4939 N   0  0  0  0  0  0  0  0  0  0  0  0
    0.1485    0.9716    0.2878 C   0  0  0  0  0  0  0  0  0  0  0  0
    1.4907    0.9888   -0.0578 C   0  0  0  0  0  0  0  0  0  0  0  0
    1.8144    2.3198   -0.1673 N   0  0  0  0  0  0  0  0  0  0  0  0
    0.6895    3.0080    0.1090 C   0  0  0  0  0  0  0  0  0  0  0  0
   -0.3327    2.2345    0.3869 N   0  0  0  0  0  0  0  0  0  0  0  0
    0.6361    4.0782    0.1012 H   0  0  0  0  0  0  0  0  0  0  0  0
    2.7250    2.6754   -0.4079 H   0  0  0  0  0  0  0  0  0  0  0  0
    2.2639   -0.2038   -0.2361 C   0  0  0  0  0  0  0  0  0  0  0  0
    3.4394   -0.2670   -0.5395 O   0  0  0  0  0  0  0  0  0  0  0  0
    1.4816   -1.3389   -0.0150 N   0  0  0  0  0  0  0  0  0  0  0  0
    0.1340   -1.3914    0.3246 C   0  0  0  0  0  0  0  0  0  0  0  0
   -0.4294   -2.4529    0.4743 O   0  0  0  0  0  0  0  0  0  0  0  0
    2.1247   -2.6344   -0.1626 C   0  0  0  0  0  0  0  0  0  0  0  0
    2.0509   -3.1912    0.7710 H   0  0  0  0  0  0  0  0  0  0  0  0
    1.6306   -3.2056   -0.9481 H   0  0  0  0  0  0  0  0  0  0  0  0
    3.1663   -2.4566   -0.4193 H   0  0  0  0  0  0  0  0  0  0  0  0
   -2.1559   -1.1011    1.3414 H   0  0  0  0  0  0  0  0  0  0  0  0
   -2.1168    0.6825    1.4470 H   0  0  0  0  0  0  0  0  0  0  0  0
   -2.1294   -0.0326   -1.3353 H   0  0  0  0  0  0  0  0  0  0  0  0
  1  2  1  0
  1  3  1  0
  1  4  1  0
  1  5  1  0
  5  6  1  0
  5 10  1  0
  5 30  1  6
  6  7  1  0
  6  8  1  0
  6  9  1  0
 10 11  1  0
 10 28  1  0
 10 29  1  0
 11 12  1  0
 11 22  1  0
 12 13  2  0
 12 16  1  0
 13 14  1  0
 13 19  1  0
 14 15  1  0
 14 18  1  0
 15 16  2  0
 15 17  1  0
 19 20  2  0
 19 21  1  0
 21 22  1  0
 21 24  1  0
 22 23  2  0
 24 25  1  0
 24 26  1  0
 24 27  1  0
M  END
$$$$
