
     RDKit          3D

 30 32  0  0  0  0  0  0  0  0999 V2000
    3.1959    2.3690   -0.5691 O   0  0  0  0  0  0  0  0  0  0  0  0
    2.0678    2.2588   -0.1592 C   0  0  0  0  0  0  0  0  0  0  0  0
    1.3645    3.3271    0.2526 O   0  0  0  0  0  0  0  0  0  0  0  0
    1.9018    4.1289    0.1550 H   0  0  0  0  0  0  0  0  0  0  0  0
    1.2879    1.0006   -0.0518 C   0  0  0  0  0  0  0  0  0  0  0  0
   -0.0858    1.0679   -0.0549 C   0  0  0  0  0  0  0  0  0  0  0  0
   -0.8503   -0.1196    0.0106 C   0  0  0  0  0  0  0  0  0  0  0  0
   -0.2847   -1.3032    0.0590 N   0  0  0  0  0  0  0  0  0  0  0  0
    1.0530   -1.4055    0.0779 C   0  0  0  0  0  0  0  0  0  0  0  0
    1.6113   -2.7001    0.1501 C   0  0  0  0  0  0  0  0  0  0  0  0
    2.9666   -2.8665    0.1813 C   0  0  0  0  0  0  0  0  0  0  0  0
    3.8179   -1.7513    0.1444 C   0  0  0  0  0  0  0  0  0  0  0  0
    3.3100   -0.4822    0.0724 C   0  0  0  0  0  0  0  0  0  0  0  0
    1.9187   -0.2728    0.0295 C   0  0  0  0  0  0  0  0  0  0  0  0
    3.9703    0.3690    0.0376 H   0  0  0  0  0  0  0  0  0  0  0  0
    4.8870   -1.9009    0.1745 H   0  0  0  0  0  0  0  0  0  0  0  0
    3.3930   -3.8573    0.2385 H   0  0  0  0  0  0  0  0  0  0  0  0
    0.9324   -3.5375    0.1853 H   0  0  0  0  0  0  0  0  0  0  0  0
   -2.3188   -0.0852    0.0021 C   0  0  0  0  0  0  0  0  0  0  0  0
   -3.0330    1.0116    0.4799 C   0  0  0  0  0  0  0  0  0  0  0  0
   -4.4155    1.0069    0.4578 C   0  0  0  0  0  0  0  0  0  0  0  0
   -5.1030   -0.0866   -0.0418 C   0  0  0  0  0  0  0  0  0  0  0  0
   -4.4008   -1.1861   -0.5096 C   0  0  0  0  0  0  0  0  0  0  0  0
   -3.0201   -1.1880   -0.4844 C   0  0  0  0  0  0  0  0  0  0  0  0
   -2.4586   -2.0368   -0.8420 H   0  0  0  0  0  0  0  0  0  0  0  0
   -4.9339   -2.0432   -0.8943 H   0  0  0  0  0  0  0  0  0  0  0  0
   -6.1829   -0.0836   -0.0613 H   0  0  0  0  0  0  0  0  0  0  0  0
   -4.9602    1.8604    0.8349 H   0  0  0  0  0  0  0  0  0  0  0  0
   -2.5119    1.8619    0.8943 H   0  0  0  0  0  0  0  0  0  0  0  0
   -0.5753    2.0240   -0.1450 H   0  0  0  0  0  0  0  0  0  0  0  0
  1  2  2  0
  2  3  1  0
  2  5  1  0
  3  4  1  0
  5  6  2  0
  5 14  1  0
  6  7  1  0
  6 30  1  0
  7  8  2  0
  7 19  1  0
  8  9  1  0
  9 10  1  0
  9 14  2  0
 10 11  2  0
 10 18  1  0
 11 12  1  0
 11 17  1  0
 12 13  2  0
 12 16  1  0
 13 14  1  0
 13 15  1  0
 19 20  2  0
 19 24  1  0
 20 21  1  0
 20 29  1  0
 21 22  2  0
 21 28  1  0
 22 23  1  0
 22 27  1  0
 23 24  2  0
 23 26  1  0
 24 25  1  0
M  END
$$$$

     RDKit          3D

 30 32  0  0  0  0  0  0  0  0999 V2000
   -3.1510   -2.3874    0.6029 O   0  0  0  0  0  0  0  0  0  0  0  0
   -2.0218   -2.2742    0.1953 C   0  0  0  0  0  0  0  0  0  0  0  0
   -1.2982   -3.3504   -0.1560 O   0  0  0  0  0  0  0  0  0  0  0  0
   -1.8225   -4.1508    0.0047 H   0  0  0  0  0  0  0  0  0  0  0  0
   -1.2663   -1.0054    0.0467 C   0  0  0  0  0  0  0  0  0  0  0  0
    0.1078   -1.0446    0.0310 C   0  0  0  0  0  0  0  0  0  0  0  0
    0.8430    0.1625   -0.0234 C   0  0  0  0  0  0  0  0  0  0  0  0
    0.2646    1.3381   -0.0513 N   0  0  0  0  0  0  0  0  0  0  0  0
   -1.0765    1.4147   -0.0844 C   0  0  0  0  0  0  0  0  0  0  0  0
   -1.6606    2.6978   -0.1718 C   0  0  0  0  0  0  0  0  0  0  0  0
   -3.0191    2.8350   -0.2213 C   0  0  0  0  0  0  0  0  0  0  0  0
   -3.8426    1.6989   -0.1846 C   0  0  0  0  0  0  0  0  0  0  0  0
   -3.3100    0.4410   -0.0939 C   0  0  0  0  0  0  0  0  0  0  0  0
   -1.9160    0.2609   -0.0408 C   0  0  0  0  0  0  0  0  0  0  0  0
   -3.9505   -0.4249   -0.0437 H   0  0  0  0  0  0  0  0  0  0  0  0
   -4.9136    1.8220   -0.2275 H   0  0  0  0  0  0  0  0  0  0  0  0
   -3.4680    3.8148   -0.2982 H   0  0  0  0  0  0  0  0  0  0  0  0
   -1.0018    3.5512   -0.2129 H   0  0  0  0  0  0  0  0  0  0  0  0
    2.3135    0.1285   -0.0144 C   0  0  0  0  0  0  0  0  0  0  0  0
    3.0144   -0.7909   -0.7897 C   0  0  0  0  0  0  0  0  0  0  0  0
    4.3969   -0.8024   -0.7709 C   0  0  0  0  0  0  0  0  0  0  0  0
    5.0927    0.0825    0.0354 C   0  0  0  0  0  0  0  0  0  0  0  0
    4.4003    0.9914    0.8180 C   0  0  0  0  0  0  0  0  0  0  0  0
    3.0195    1.0250    0.7835 C   0  0  0  0  0  0  0  0  0  0  0  0
    2.4693    1.7409    1.3742 H   0  0  0  0  0  0  0  0  0  0  0  0
    4.9380    1.6726    1.4605 H   0  0  0  0  0  0  0  0  0  0  0  0
    6.1726    0.0576    0.0515 H   0  0  0  0  0  0  0  0  0  0  0  0
    4.9365   -1.5043   -1.3890 H   0  0  0  0  0  0  0  0  0  0  0  0
    2.4768   -1.4749   -1.4289 H   0  0  0  0  0  0  0  0  0  0  0  0
    0.6325   -1.9836    0.1092 H   0  0  0  0  0  0  0  0  0  0  0  0
  1  2  2  0
  2  3  1  0
  2  5  1  0
  3  4  1  0
  5  6  2  0
  5 14  1  0
  6  7  1  0
  6 30  1  0
  7  8  2  0
  7 19  1  0
  8  9  1  0
  9 10  1  0
  9 14  2  0
 10 11  2  0
 10 18  1  0
 11 12  1  0
 11 17  1  0
 12 13  2  0
 12 16  1  0
 13 14  1  0
 13 15  1  0
 19 20  2  0
 19 24  1  0
 20 21  1  0
 20 29  1  0
 21 22  2  0
 21 28  1  0
 22 23  1  0
 22 27  1  0
 23 24  2  0
 23 26  1  0
 24 25  1  0
M  END
$$$$

     RDKit          3D

 30 32  0  0  0  0  0  0  0  0999 V2000
   -1.5176   -3.3437    0.3007 O   0  0  0  0  0  0  0  0  0  0  0  0
   -1.9835   -2.3082   -0.1051 C   0  0  0  0  0  0  0  0  0  0  0  0
   -3.1731   -2.2641   -0.7197 O   0  0  0  0  0  0  0  0  0  0  0  0
   -3.5479   -3.1582   -0.7713 H   0  0  0  0  0  0  0  0  0  0  0  0
   -1.2758   -1.0041   -0.0162 C   0  0  0  0  0  0  0  0  0  0  0  0
    0.0980   -1.0700   -0.0098 C   0  0  0  0  0  0  0  0  0  0  0  0
    0.8648    0.1166    0.0212 C   0  0  0  0  0  0  0  0  0  0  0  0
    0.2973    1.3001    0.0362 N   0  0  0  0  0  0  0  0  0  0  0  0
   -1.0406    1.4002    0.0683 C   0  0  0  0  0  0  0  0  0  0  0  0
   -1.5953    2.6972    0.1258 C   0  0  0  0  0  0  0  0  0  0  0  0
   -2.9488    2.8693    0.1844 C   0  0  0  0  0  0  0  0  0  0  0  0
   -3.8018    1.7555    0.1923 C   0  0  0  0  0  0  0  0  0  0  0  0
   -3.2973    0.4847    0.1309 C   0  0  0  0  0  0  0  0  0  0  0  0
   -1.9088    0.2673    0.0536 C   0  0  0  0  0  0  0  0  0  0  0  0
   -3.9665   -0.3602    0.1404 H   0  0  0  0  0  0  0  0  0  0  0  0
   -4.8696    1.9071    0.2506 H   0  0  0  0  0  0  0  0  0  0  0  0
   -3.3721    3.8619    0.2330 H   0  0  0  0  0  0  0  0  0  0  0  0
   -0.9130    3.5326    0.1332 H   0  0  0  0  0  0  0  0  0  0  0  0
    2.3327    0.0770    0.0078 C   0  0  0  0  0  0  0  0  0  0  0  0
    3.0386    1.1521   -0.5309 C   0  0  0  0  0  0  0  0  0  0  0  0
    4.4192    1.1366   -0.5657 C   0  0  0  0  0  0  0  0  0  0  0  0
    5.1155    0.0530   -0.0543 C   0  0  0  0  0  0  0  0  0  0  0  0
    4.4230   -1.0110    0.4992 C   0  0  0  0  0  0  0  0  0  0  0  0
    3.0407   -1.0034    0.5300 C   0  0  0  0  0  0  0  0  0  0  0  0
    2.5145   -1.8298    0.9839 H   0  0  0  0  0  0  0  0  0  0  0  0
    4.9630   -1.8514    0.9105 H   0  0  0  0  0  0  0  0  0  0  0  0
    6.1952    0.0393   -0.0825 H   0  0  0  0  0  0  0  0  0  0  0  0
    4.9568    1.9707   -0.9925 H   0  0  0  0  0  0  0  0  0  0  0  0
    2.4819    1.9890   -0.9227 H   0  0  0  0  0  0  0  0  0  0  0  0
    0.5756   -2.0354   -0.0691 H   0  0  0  0  0  0  0  0  0  0  0  0
  1  2  2  0
  2  3  1  0
  2  5  1  0
  3  4  1  0
  5  6  2  0
  5 14  1  0
  6  7  1  0
  6 30  1  0
  7  8  2  0
  7 19  1  0
  8  9  1  0
  9 10  1  0
  9 14  2  0
 10 11  2  0
 10 18  1  0
 11 12  1  0
 11 17  1  0
 12 13  2  0
 12 16  1  0
 13 14  1  0
 13 15  1  0
 19 20  2  0
 19 24  1  0
 20 21  1  0
 20 29  1  0
 21 22  2  0
 21 28  1  0
 22 23  1  0
 22 27  1  0
 23 24  2  0
 23 26  1  0
 24 25  1  0
M  END
$$$$

     RDKit          3D

 30 32  0  0  0  0  0  0  0  0999 V2000
   -1.5843   -3.3156    0.4725 O   0  0  0  0  0  0  0  0  0  0  0  0
   -2.0284   -2.2968    0.0045 C   0  0  0  0  0  0  0  0  0  0  0  0
   -3.2113   -2.2684   -0.6231 O   0  0  0  0  0  0  0  0  0  0  0  0
   -3.6009   -3.1573   -0.6277 H   0  0  0  0  0  0  0  0  0  0  0  0
   -1.2989   -1.0017    0.0264 C   0  0  0  0  0  0  0  0  0  0  0  0
    0.0735   -1.0938    0.0411 C   0  0  0  0  0  0  0  0  0  0  0  0
    0.8685    0.0758    0.0245 C   0  0  0  0  0  0  0  0  0  0  0  0
    0.3132    1.2676    0.0125 N   0  0  0  0  0  0  0  0  0  0  0  0
   -1.0204    1.3952    0.0273 C   0  0  0  0  0  0  0  0  0  0  0  0
   -1.5488    2.7051    0.0357 C   0  0  0  0  0  0  0  0  0  0  0  0
   -2.8994    2.9065    0.0581 C   0  0  0  0  0  0  0  0  0  0  0  0
   -3.7751    1.8104    0.0806 C   0  0  0  0  0  0  0  0  0  0  0  0
   -3.2966    0.5282    0.0718 C   0  0  0  0  0  0  0  0  0  0  0  0
   -1.9116    0.2806    0.0328 C   0  0  0  0  0  0  0  0  0  0  0  0
   -3.9835   -0.3021    0.0907 H   0  0  0  0  0  0  0  0  0  0  0  0
   -4.8408    1.9854    0.1070 H   0  0  0  0  0  0  0  0  0  0  0  0
   -3.3026    3.9080    0.0645 H   0  0  0  0  0  0  0  0  0  0  0  0
   -0.8503    3.5270    0.0295 H   0  0  0  0  0  0  0  0  0  0  0  0
    2.3375    0.0342    0.0042 C   0  0  0  0  0  0  0  0  0  0  0  0
    3.0628   -1.1552    0.0590 C   0  0  0  0  0  0  0  0  0  0  0  0
    4.4451   -1.1359    0.0231 C   0  0  0  0  0  0  0  0  0  0  0  0
    5.1282    0.0657   -0.0663 C   0  0  0  0  0  0  0  0  0  0  0  0
    4.4184    1.2551   -0.1151 C   0  0  0  0  0  0  0  0  0  0  0  0
    3.0385    1.2394   -0.0809 C   0  0  0  0  0  0  0  0  0  0  0  0
    2.4725    2.1560   -0.1197 H   0  0  0  0  0  0  0  0  0  0  0  0
    4.9449    2.1956   -0.1820 H   0  0  0  0  0  0  0  0  0  0  0  0
    6.2079    0.0744   -0.0961 H   0  0  0  0  0  0  0  0  0  0  0  0
    4.9932   -2.0655    0.0642 H   0  0  0  0  0  0  0  0  0  0  0  0
    2.5607   -2.1070    0.1342 H   0  0  0  0  0  0  0  0  0  0  0  0
    0.5175   -2.0760    0.0495 H   0  0  0  0  0  0  0  0  0  0  0  0
  1  2  2  0
  2  3  1  0
  2  5  1  0
  3  4  1  0
  5  6  2  0
  5 14  1  0
  6  7  1  0
  6 30  1  0
  7  8  2  0
  7 19  1  0
  8  9  1  0
  9 10  1  0
  9 14  2  0
 10 11  2  0
 10 18  1  0
 11 12  1  0
 11 17  1  0
 12 13  2  0
 12 16  1  0
 13 14  1  0
 13 15  1  0
 19 20  2  0
 19 24  1  0
 20 21  1  0
 20 29  1  0
 21 22  2  0
 21 28  1  0
 22 23  1  0
 22 27  1  0
 23 24  2  0
 23 26  1  0
 24 25  1  0
M  END
$$$$

     RDKit          3D

 30 32  0  0  0  0  0  0  0  0999 V2000
   -1.4933   -3.2613    0.7613 O   0  0  0  0  0  0  0  0  0  0  0  0
   -1.9566   -2.3087    0.1864 C   0  0  0  0  0  0  0  0  0  0  0  0
   -3.1360   -2.3743   -0.4468 O   0  0  0  0  0  0  0  0  0  0  0  0
   -3.5095   -3.2651   -0.3483 H   0  0  0  0  0  0  0  0  0  0  0  0
   -1.2599   -0.9994    0.0782 C   0  0  0  0  0  0  0  0  0  0  0  0
    0.1143   -1.0503    0.0533 C   0  0  0  0  0  0  0  0  0  0  0  0
    0.8613    0.1457   -0.0252 C   0  0  0  0  0  0  0  0  0  0  0  0
    0.2871    1.3223   -0.0693 N   0  0  0  0  0  0  0  0  0  0  0  0
   -1.0531    1.4071   -0.0664 C   0  0  0  0  0  0  0  0  0  0  0  0
   -1.6222    2.6962   -0.1457 C   0  0  0  0  0  0  0  0  0  0  0  0
   -2.9790    2.8544   -0.1458 C   0  0  0  0  0  0  0  0  0  0  0  0
   -3.8182    1.7355   -0.0424 C   0  0  0  0  0  0  0  0  0  0  0  0
   -3.2987    0.4724    0.0387 C   0  0  0  0  0  0  0  0  0  0  0  0
   -1.9063    0.2657    0.0095 C   0  0  0  0  0  0  0  0  0  0  0  0
   -3.9584   -0.3772    0.1106 H   0  0  0  0  0  0  0  0  0  0  0  0
   -4.8891    1.8743   -0.0245 H   0  0  0  0  0  0  0  0  0  0  0  0
   -3.4105    3.8412   -0.2146 H   0  0  0  0  0  0  0  0  0  0  0  0
   -0.9487    3.5363   -0.2089 H   0  0  0  0  0  0  0  0  0  0  0  0
    2.3309    0.1034   -0.0351 C   0  0  0  0  0  0  0  0  0  0  0  0
    3.0102   -0.8269   -0.8160 C   0  0  0  0  0  0  0  0  0  0  0  0
    4.3926   -0.8537   -0.8202 C   0  0  0  0  0  0  0  0  0  0  0  0
    5.1081    0.0318   -0.0317 C   0  0  0  0  0  0  0  0  0  0  0  0
    4.4361    0.9582    0.7505 C   0  0  0  0  0  0  0  0  0  0  0  0
    3.0553    1.0056    0.7390 C   0  0  0  0  0  0  0  0  0  0  0  0
    2.5177    1.7285    1.3332 H   0  0  0  0  0  0  0  0  0  0  0  0
    4.9963    1.6430    1.3704 H   0  0  0  0  0  0  0  0  0  0  0  0
    6.1881    0.0033   -0.0284 H   0  0  0  0  0  0  0  0  0  0  0  0
    4.9120   -1.5643   -1.4459 H   0  0  0  0  0  0  0  0  0  0  0  0
    2.4545   -1.5098   -1.4419 H   0  0  0  0  0  0  0  0  0  0  0  0
    0.6185   -2.0029    0.1201 H   0  0  0  0  0  0  0  0  0  0  0  0
  1  2  2  0
  2  3  1  0
  2  5  1  0
  3  4  1  0
  5  6  2  0
  5 14  1  0
  6  7  1  0
  6 30  1  0
  7  8  2  0
  7 19  1  0
  8  9  1  0
  9 10  1  0
  9 14  2  0
 10 11  2  0
 10 18  1  0
 11 12  1  0
 11 17  1  0
 12 13  2  0
 12 16  1  0
 13 14  1  0
 13 15  1  0
 19 20  2  0
 19 24  1  0
 20 21  1  0
 20 29  1  0
 21 22  2  0
 21 28  1  0
 22 23  1  0
 22 27  1  0
 23 24  2  0
 23 26  1  0
 24 25  1  0
M  END
$$$$

     RDKit          3D

 30 32  0  0  0  0  0  0  0  0999 V2000
   -1.4204   -3.2737   -0.7202 O   0  0  0  0  0  0  0  0  0  0  0  0
   -1.9274   -2.3201   -0.1851 C   0  0  0  0  0  0  0  0  0  0  0  0
   -3.1387   -2.3950    0.3832 O   0  0  0  0  0  0  0  0  0  0  0  0
   -3.4881   -3.2953    0.2842 H   0  0  0  0  0  0  0  0  0  0  0  0
   -1.2514   -1.0008   -0.0673 C   0  0  0  0  0  0  0  0  0  0  0  0
    0.1237   -1.0361   -0.0426 C   0  0  0  0  0  0  0  0  0  0  0  0
    0.8576    0.1676    0.0261 C   0  0  0  0  0  0  0  0  0  0  0  0
    0.2741    1.3390    0.0641 N   0  0  0  0  0  0  0  0  0  0  0  0
   -1.0684    1.4094    0.0681 C   0  0  0  0  0  0  0  0  0  0  0  0
   -1.6508    2.6924    0.1464 C   0  0  0  0  0  0  0  0  0  0  0  0
   -3.0090    2.8379    0.1425 C   0  0  0  0  0  0  0  0  0  0  0  0
   -3.8383    1.7103    0.0458 C   0  0  0  0  0  0  0  0  0  0  0  0
   -3.3053    0.4519   -0.0292 C   0  0  0  0  0  0  0  0  0  0  0  0
   -1.9102    0.2585   -0.0020 C   0  0  0  0  0  0  0  0  0  0  0  0
   -3.9563   -0.4035   -0.0974 H   0  0  0  0  0  0  0  0  0  0  0  0
   -4.9104    1.8405    0.0293 H   0  0  0  0  0  0  0  0  0  0  0  0
   -3.4544    3.8198    0.2068 H   0  0  0  0  0  0  0  0  0  0  0  0
   -0.9854    3.5388    0.2108 H   0  0  0  0  0  0  0  0  0  0  0  0
    2.3302    0.1277    0.0348 C   0  0  0  0  0  0  0  0  0  0  0  0
    3.0048   -0.6950    0.9316 C   0  0  0  0  0  0  0  0  0  0  0  0
    4.3874   -0.7306    0.9362 C   0  0  0  0  0  0  0  0  0  0  0  0
    5.1051    0.0333    0.0317 C   0  0  0  0  0  0  0  0  0  0  0  0
    4.4379    0.8502   -0.8667 C   0  0  0  0  0  0  0  0  0  0  0  0
    3.0561    0.9093   -0.8569 C   0  0  0  0  0  0  0  0  0  0  0  0
    2.5248    1.5467   -1.5471 H   0  0  0  0  0  0  0  0  0  0  0  0
    4.9988    1.4418   -1.5753 H   0  0  0  0  0  0  0  0  0  0  0  0
    6.1844   -0.0049    0.0297 H   0  0  0  0  0  0  0  0  0  0  0  0
    4.9066   -1.3577    1.6463 H   0  0  0  0  0  0  0  0  0  0  0  0
    2.4450   -1.2870    1.6415 H   0  0  0  0  0  0  0  0  0  0  0  0
    0.6393   -1.9824   -0.1051 H   0  0  0  0  0  0  0  0  0  0  0  0
  1  2  2  0
  2  3  1  0
  2  5  1  0
  3  4  1  0
  5  6  2  0
  5 14  1  0
  6  7  1  0
  6 30  1  0
  7  8  2  0
  7 19  1  0
  8  9  1  0
  9 10  1  0
  9 14  2  0
 10 11  2  0
 10 18  1  0
 11 12  1  0
 11 17  1  0
 12 13  2  0
 12 16  1  0
 13 14  1  0
 13 15  1  0
 19 20  2  0
 19 24  1  0
 20 21  1  0
 20 29  1  0
 21 22  2  0
 21 28  1  0
 22 23  1  0
 22 27  1  0
 23 24  2  0
 23 26  1  0
 24 25  1  0
M  END
$$$$

     RDKit          3D

 30 32  0  0  0  0  0  0  0  0999 V2000
   -2.4356   -2.7114    1.2677 O   0  0  0  0  0  0  0  0  0  0  0  0
   -2.1020   -2.2126    0.2284 C   0  0  0  0  0  0  0  0  0  0  0  0
   -2.4308   -2.7218   -0.9659 O   0  0  0  0  0  0  0  0  0  0  0  0
   -2.9621   -3.5260   -0.8590 H   0  0  0  0  0  0  0  0  0  0  0  0
   -1.2648   -0.9815    0.0911 C   0  0  0  0  0  0  0  0  0  0  0  0
    0.1011   -1.0769    0.0815 C   0  0  0  0  0  0  0  0  0  0  0  0
    0.8754    0.1058   -0.0112 C   0  0  0  0  0  0  0  0  0  0  0  0
    0.3312    1.2958   -0.0759 N   0  0  0  0  0  0  0  0  0  0  0  0
   -1.0066    1.4165   -0.0819 C   0  0  0  0  0  0  0  0  0  0  0  0
   -1.5674    2.7085   -0.1748 C   0  0  0  0  0  0  0  0  0  0  0  0
   -2.9241    2.8728   -0.1863 C   0  0  0  0  0  0  0  0  0  0  0  0
   -3.7796    1.7619   -0.1003 C   0  0  0  0  0  0  0  0  0  0  0  0
   -3.2699    0.4962   -0.0095 C   0  0  0  0  0  0  0  0  0  0  0  0
   -1.8768    0.2935   -0.0018 C   0  0  0  0  0  0  0  0  0  0  0  0
   -3.9261   -0.3593    0.0614 H   0  0  0  0  0  0  0  0  0  0  0  0
   -4.8487    1.9157   -0.1071 H   0  0  0  0  0  0  0  0  0  0  0  0
   -3.3512    3.8610   -0.2605 H   0  0  0  0  0  0  0  0  0  0  0  0
   -0.8914    3.5463   -0.2393 H   0  0  0  0  0  0  0  0  0  0  0  0
    2.3426    0.0422   -0.0154 C   0  0  0  0  0  0  0  0  0  0  0  0
    3.0271   -1.0171   -0.6066 C   0  0  0  0  0  0  0  0  0  0  0  0
    4.4089   -1.0467   -0.5973 C   0  0  0  0  0  0  0  0  0  0  0  0
    5.1244   -0.0279    0.0097 C   0  0  0  0  0  0  0  0  0  0  0  0
    4.4526    1.0334    0.5934 C   0  0  0  0  0  0  0  0  0  0  0  0
    3.0719    1.0734    0.5756 C   0  0  0  0  0  0  0  0  0  0  0  0
    2.5329    1.8948    1.0229 H   0  0  0  0  0  0  0  0  0  0  0  0
    5.0087    1.8311    1.0635 H   0  0  0  0  0  0  0  0  0  0  0  0
    6.2045   -0.0596    0.0228 H   0  0  0  0  0  0  0  0  0  0  0  0
    4.9318   -1.8683   -1.0656 H   0  0  0  0  0  0  0  0  0  0  0  0
    2.4782   -1.8056   -1.1016 H   0  0  0  0  0  0  0  0  0  0  0  0
    0.5859   -2.0368    0.1741 H   0  0  0  0  0  0  0  0  0  0  0  0
  1  2  2  0
  2  3  1  0
  2  5  1  0
  3  4  1  0
  5  6  2  0
  5 14  1  0
  6  7  1  0
  6 30  1  0
  7  8  2  0
  7 19  1  0
  8  9  1  0
  9 10  1  0
  9 14  2  0
 10 11  2  0
 10 18  1  0
 11 12  1  0
 11 17  1  0
 12 13  2  0
 12 16  1  0
 13 14  1  0
 13 15  1  0
 19 20  2  0
 19 24  1  0
 20 21  1  0
 20 29  1  0
 21 22  2  0
 21 28  1  0
 22 23  1  0
 22 27  1  0
 23 24  2  0
 23 26  1  0
 24 25  1  0
M  END
$$$$

     RDKit          3D

 30 32  0  0  0  0  0  0  0  0999 V2000
   -1.5062   -3.3451    0.3544 O   0  0  0  0  0  0  0  0  0  0  0  0
   -1.9398   -2.3197   -0.1059 C   0  0  0  0  0  0  0  0  0  0  0  0
   -3.0725   -2.2885   -0.8232 O   0  0  0  0  0  0  0  0  0  0  0  0
   -3.4335   -3.1862   -0.9074 H   0  0  0  0  0  0  0  0  0  0  0  0
   -1.2459   -1.0070   -0.0006 C   0  0  0  0  0  0  0  0  0  0  0  0
    0.1289   -1.0420    0.0248 C   0  0  0  0  0  0  0  0  0  0  0  0
    0.8554    0.1690    0.0082 C   0  0  0  0  0  0  0  0  0  0  0  0
    0.2719    1.3395   -0.0167 N   0  0  0  0  0  0  0  0  0  0  0  0
   -1.0694    1.4105    0.0489 C   0  0  0  0  0  0  0  0  0  0  0  0
   -1.6561    2.6923    0.1203 C   0  0  0  0  0  0  0  0  0  0  0  0
   -3.0124    2.8279    0.2145 C   0  0  0  0  0  0  0  0  0  0  0  0
   -3.8329    1.6899    0.2264 C   0  0  0  0  0  0  0  0  0  0  0  0
   -3.2959    0.4335    0.1526 C   0  0  0  0  0  0  0  0  0  0  0  0
   -1.9031    0.2532    0.0554 C   0  0  0  0  0  0  0  0  0  0  0  0
   -3.9433   -0.4288    0.1755 H   0  0  0  0  0  0  0  0  0  0  0  0
   -4.9030    1.8080    0.3090 H   0  0  0  0  0  0  0  0  0  0  0  0
   -3.4599    3.8094    0.2787 H   0  0  0  0  0  0  0  0  0  0  0  0
   -0.9988    3.5478    0.1205 H   0  0  0  0  0  0  0  0  0  0  0  0
    2.3316    0.1312   -0.0040 C   0  0  0  0  0  0  0  0  0  0  0  0
    3.0419    0.6711   -1.0696 C   0  0  0  0  0  0  0  0  0  0  0  0
    4.4230    0.6122   -1.0839 C   0  0  0  0  0  0  0  0  0  0  0  0
    5.1089    0.0345   -0.0294 C   0  0  0  0  0  0  0  0  0  0  0  0
    4.4065   -0.4861    1.0444 C   0  0  0  0  0  0  0  0  0  0  0  0
    3.0236   -0.4553    1.0506 C   0  0  0  0  0  0  0  0  0  0  0  0
    2.4734   -0.8668    1.8848 H   0  0  0  0  0  0  0  0  0  0  0  0
    4.9375   -0.9232    1.8774 H   0  0  0  0  0  0  0  0  0  0  0  0
    6.1875   -0.0143   -0.0449 H   0  0  0  0  0  0  0  0  0  0  0  0
    4.9618    1.0196   -1.9254 H   0  0  0  0  0  0  0  0  0  0  0  0
    2.5039    1.1182   -1.8908 H   0  0  0  0  0  0  0  0  0  0  0  0
    0.6512   -1.9863    0.0177 H   0  0  0  0  0  0  0  0  0  0  0  0
  1  2  2  0
  2  3  1  0
  2  5  1  0
  3  4  1  0
  5  6  2  0
  5 14  1  0
  6  7  1  0
  6 30  1  0
  7  8  2  0
  7 19  1  0
  8  9  1  0
  9 10  1  0
  9 14  2  0
 10 11  2  0
 10 18  1  0
 11 12  1  0
 11 17  1  0
 12 13  2  0
 12 16  1  0
 13 14  1  0
 13 15  1  0
 19 20  2  0
 19 24  1  0
 20 21  1  0
 20 29  1  0
 21 22  2  0
 21 28  1  0
 22 23  1  0
 22 27  1  0
 23 24  2  0
 23 26  1  0
 24 25  1  0
M  END
$$$$

     RDKit          3D

 30 32  0  0  0  0  0  0  0  0999 V2000
    3.1084    2.4750    0.4400 O   0  0  0  0  0  0  0  0  0  0  0  0
    2.0033    2.2858   -0.0014 C   0  0  0  0  0  0  0  0  0  0  0  0
    1.2956    3.2731   -0.5730 O   0  0  0  0  0  0  0  0  0  0  0  0
    1.8073    4.0970   -0.5510 H   0  0  0  0  0  0  0  0  0  0  0  0
    1.2567    1.0007   -0.0015 C   0  0  0  0  0  0  0  0  0  0  0  0
   -0.1194    1.0305    0.0087 C   0  0  0  0  0  0  0  0  0  0  0  0
   -0.8401   -0.1838   -0.0039 C   0  0  0  0  0  0  0  0  0  0  0  0
   -0.2547   -1.3514   -0.0203 N   0  0  0  0  0  0  0  0  0  0  0  0
    1.0897   -1.4155   -0.0138 C   0  0  0  0  0  0  0  0  0  0  0  0
    1.6868   -2.6925   -0.0101 C   0  0  0  0  0  0  0  0  0  0  0  0
    3.0460   -2.8203    0.0076 C   0  0  0  0  0  0  0  0  0  0  0  0
    3.8665   -1.6826    0.0174 C   0  0  0  0  0  0  0  0  0  0  0  0
    3.3190   -0.4283    0.0042 C   0  0  0  0  0  0  0  0  0  0  0  0
    1.9202   -0.2582    0.0004 C   0  0  0  0  0  0  0  0  0  0  0  0
    3.9518    0.4435    0.0146 H   0  0  0  0  0  0  0  0  0  0  0  0
    4.9413   -1.7995    0.0279 H   0  0  0  0  0  0  0  0  0  0  0  0
    3.4974   -3.8008    0.0154 H   0  0  0  0  0  0  0  0  0  0  0  0
    1.0339   -3.5508   -0.0267 H   0  0  0  0  0  0  0  0  0  0  0  0
   -2.3206   -0.1501    0.0140 C   0  0  0  0  0  0  0  0  0  0  0  0
   -2.9944    0.0850    1.2064 C   0  0  0  0  0  0  0  0  0  0  0  0
   -4.3781    0.1099    1.2295 C   0  0  0  0  0  0  0  0  0  0  0  0
   -5.0945   -0.0742    0.0587 C   0  0  0  0  0  0  0  0  0  0  0  0
   -4.4264   -0.2882   -1.1352 C   0  0  0  0  0  0  0  0  0  0  0  0
   -3.0445   -0.3366   -1.1569 C   0  0  0  0  0  0  0  0  0  0  0  0
   -2.5159   -0.5215   -2.0808 H   0  0  0  0  0  0  0  0  0  0  0  0
   -4.9828   -0.4249   -2.0512 H   0  0  0  0  0  0  0  0  0  0  0  0
   -6.1742   -0.0460    0.0779 H   0  0  0  0  0  0  0  0  0  0  0  0
   -4.9002    0.2746    2.1619 H   0  0  0  0  0  0  0  0  0  0  0  0
   -2.4288    0.2353    2.1151 H   0  0  0  0  0  0  0  0  0  0  0  0
   -0.6586    1.9657    0.0200 H   0  0  0  0  0  0  0  0  0  0  0  0
  1  2  2  0
  2  3  1  0
  2  5  1  0
  3  4  1  0
  5  6  2  0
  5 14  1  0
  6  7  1  0
  6 30  1  0
  7  8  2  0
  7 19  1  0
  8  9  1  0
  9 10  1  0
  9 14  2  0
 10 11  2  0
 10 18  1  0
 11 12  1  0
 11 17  1  0
 12 13  2  0
 12 16  1  0
 13 14  1  0
 13 15  1  0
 19 20  2  0
 19 24  1  0
 20 21  1  0
 20 29  1  0
 21 22  2  0
 21 28  1  0
 22 23  1  0
 22 27  1  0
 23 24  2  0
 23 26  1  0
 24 25  1  0
M  END
$$$$

     RDKit          3D

 30 32  0  0  0  0  0  0  0  0999 V2000
   -1.4405   -3.2820    0.6700 O   0  0  0  0  0  0  0  0  0  0  0  0
   -1.9248   -2.3221    0.1252 C   0  0  0  0  0  0  0  0  0  0  0  0
   -3.1102   -2.3888   -0.4954 O   0  0  0  0  0  0  0  0  0  0  0  0
   -3.4638   -3.2902   -0.4214 H   0  0  0  0  0  0  0  0  0  0  0  0
   -1.2467   -1.0018    0.0457 C   0  0  0  0  0  0  0  0  0  0  0  0
    0.1298   -1.0316    0.0218 C   0  0  0  0  0  0  0  0  0  0  0  0
    0.8554    0.1768   -0.0266 C   0  0  0  0  0  0  0  0  0  0  0  0
    0.2702    1.3452   -0.0514 N   0  0  0  0  0  0  0  0  0  0  0  0
   -1.0737    1.4107   -0.0413 C   0  0  0  0  0  0  0  0  0  0  0  0
   -1.6612    2.6922   -0.0854 C   0  0  0  0  0  0  0  0  0  0  0  0
   -3.0204    2.8298   -0.0658 C   0  0  0  0  0  0  0  0  0  0  0  0
   -3.8447    1.6973    0.0155 C   0  0  0  0  0  0  0  0  0  0  0  0
   -3.3061    0.4399    0.0574 C   0  0  0  0  0  0  0  0  0  0  0  0
   -1.9102    0.2557    0.0129 C   0  0  0  0  0  0  0  0  0  0  0  0
   -3.9530   -0.4197    0.1192 H   0  0  0  0  0  0  0  0  0  0  0  0
   -4.9168    1.8251    0.0449 H   0  0  0  0  0  0  0  0  0  0  0  0
   -3.4700    3.8102   -0.1030 H   0  0  0  0  0  0  0  0  0  0  0  0
   -1.0023    3.5439   -0.1368 H   0  0  0  0  0  0  0  0  0  0  0  0
    2.3336    0.1373   -0.0322 C   0  0  0  0  0  0  0  0  0  0  0  0
    3.0450    0.4986    1.1060 C   0  0  0  0  0  0  0  0  0  0  0  0
    4.4272    0.4374    1.1084 C   0  0  0  0  0  0  0  0  0  0  0  0
    5.1080    0.0351   -0.0286 C   0  0  0  0  0  0  0  0  0  0  0  0
    4.4025   -0.3163   -1.1677 C   0  0  0  0  0  0  0  0  0  0  0  0
    3.0206   -0.2757   -1.1678 C   0  0  0  0  0  0  0  0  0  0  0  0
    2.4680   -0.5501   -2.0539 H   0  0  0  0  0  0  0  0  0  0  0  0
    4.9301   -0.6263   -2.0579 H   0  0  0  0  0  0  0  0  0  0  0  0
    6.1870   -0.0039   -0.0272 H   0  0  0  0  0  0  0  0  0  0  0  0
    4.9759    0.7060    1.9991 H   0  0  0  0  0  0  0  0  0  0  0  0
    2.5086    0.8191    1.9868 H   0  0  0  0  0  0  0  0  0  0  0  0
    0.6514   -1.9765    0.0543 H   0  0  0  0  0  0  0  0  0  0  0  0
  1  2  2  0
  2  3  1  0
  2  5  1  0
  3  4  1  0
  5  6  2  0
  5 14  1  0
  6  7  1  0
  6 30  1  0
  7  8  2  0
  7 19  1  0
  8  9  1  0
  9 10  1  0
  9 14  2  0
 10 11  2  0
 10 18  1  0
 11 12  1  0
 11 17  1  0
 12 13  2  0
 12 16  1  0
 13 14  1  0
 13 15  1  0
 19 20  2  0
 19 24  1  0
 20 21  1  0
 20 29  1  0
 21 22  2  0
 21 28  1  0
 22 23  1  0
 22 27  1  0
 23 24  2  0
 23 26  1  0
 24 25  1  0
M  END
$$$$
