
     RDKit          3D

 37 40  0  0  0  0  0  0  0  0999 V2000
   -1.0327   -0.0014   -2.4829 O   0  0  0  0  0  0  0  0  0  0  0  0
   -0.4547   -0.0011   -1.4244 C   0  0  0  0  0  0  0  0  0  0  0  0
   -1.0510   -0.0008   -0.1990 N   0  0  0  0  0  0  0  0  0  0  0  0
   -2.4086   -0.0012    0.1081 C   0  0  0  0  0  0  0  0  0  0  0  0
   -3.4177   -0.0020   -0.8515 C   0  0  0  0  0  0  0  0  0  0  0  0
   -4.7314   -0.0023   -0.4123 C   0  0  0  0  0  0  0  0  0  0  0  0
   -5.0887   -0.0018    0.8604 N   0  0  0  0  0  0  0  0  0  0  0  0
   -4.1264   -0.0010    1.7673 C   0  0  0  0  0  0  0  0  0  0  0  0
   -2.7800   -0.0007    1.4533 C   0  0  0  0  0  0  0  0  0  0  0  0
   -2.0302   -0.0000    2.2313 H   0  0  0  0  0  0  0  0  0  0  0  0
   -4.4540   -0.0007    2.7986 H   0  0  0  0  0  0  0  0  0  0  0  0
   -5.5460   -0.0029   -1.1241 H   0  0  0  0  0  0  0  0  0  0  0  0
   -3.1798   -0.0024   -1.9009 H   0  0  0  0  0  0  0  0  0  0  0  0
   -0.4437   -0.0001    0.6102 H   0  0  0  0  0  0  0  0  0  0  0  0
    1.0835    0.0001   -1.3211 C   0  0  1  0  0  0  0  0  0  0  0  0
    1.5264    1.2430   -0.5974 C   0  0  0  0  0  0  0  0  0  0  0  0
    1.5292    2.4766   -1.2336 C   0  0  0  0  0  0  0  0  0  0  0  0
    1.8765    3.6261   -0.5487 C   0  0  0  0  0  0  0  0  0  0  0  0
    2.2284    3.5523    0.7896 C   0  0  0  0  0  0  0  0  0  0  0  0
    2.2448    2.3321    1.4360 C   0  0  0  0  0  0  0  0  0  0  0  0
    1.8947    1.1778    0.7443 C   0  0  0  0  0  0  0  0  0  0  0  0
    1.9311    0.0012    1.4486 O   0  0  0  0  0  0  0  0  0  0  0  0
    1.8965   -1.1757    0.7447 C   0  0  0  0  0  0  0  0  0  0  0  0
    2.2485   -2.3293    1.4367 C   0  0  0  0  0  0  0  0  0  0  0  0
    2.2340   -3.5497    0.7907 C   0  0  0  0  0  0  0  0  0  0  0  0
    1.8823   -3.6244   -0.5476 C   0  0  0  0  0  0  0  0  0  0  0  0
    1.5332   -2.4756   -1.2329 C   0  0  0  0  0  0  0  0  0  0  0  0
    1.5284   -1.2418   -0.5971 C   0  0  0  0  0  0  0  0  0  0  0  0
    1.2481   -2.5252   -2.2733 H   0  0  0  0  0  0  0  0  0  0  0  0
    1.8759   -4.5767   -1.0547 H   0  0  0  0  0  0  0  0  0  0  0  0
    2.5035   -4.4434    1.3321 H   0  0  0  0  0  0  0  0  0  0  0  0
    2.5287   -2.2435    2.4747 H   0  0  0  0  0  0  0  0  0  0  0  0
    2.5251    2.2471    2.4740 H   0  0  0  0  0  0  0  0  0  0  0  0
    2.4965    4.4466    1.3309 H   0  0  0  0  0  0  0  0  0  0  0  0
    1.8687    4.5782   -1.0561 H   0  0  0  0  0  0  0  0  0  0  0  0
    1.2441    2.5253   -2.2740 H   0  0  0  0  0  0  0  0  0  0  0  0
    1.4569    0.0002   -2.3505 H   0  0  0  0  0  0  0  0  0  0  0  0
  1  2  2  0
  2  3  1  0
  2 15  1  0
  3  4  1  0
  3 14  1  0
  4  5  2  0
  4  9  1  0
  5  6  1  0
  5 13  1  0
  6  7  2  0
  6 12  1  0
  7  8  1  0
  8  9  2  0
  8 11  1  0
  9 10  1  0
 15 16  1  0
 15 28  1  0
 15 37  1  6
 16 17  2  0
 16 21  1  0
 17 18  1  0
 17 36  1  0
 18 19  2  0
 18 35  1  0
 19 20  1  0
 19 34  1  0
 20 21  2  0
 20 33  1  0
 21 22  1  0
 22 23  1  0
 23 24  2  0
 23 28  1  0
 24 25  1  0
 24 32  1  0
 25 26  2  0
 25 31  1  0
 26 27  1  0
 26 30  1  0
 27 28  2  0
 27 29  1  0
M  END
$$$$

     RDKit          3D

 37 40  0  0  0  0  0  0  0  0999 V2000
    1.0346    3.3123   -0.6499 O   0  0  0  0  0  0  0  0  0  0  0  0
    0.5360    2.2156   -0.5311 C   0  0  0  0  0  0  0  0  0  0  0  0
   -0.2936    1.7270   -1.4916 N   0  0  0  0  0  0  0  0  0  0  0  0
   -0.9066    0.4620   -1.5854 C   0  0  0  0  0  0  0  0  0  0  0  0
   -2.2942    0.3469   -1.5590 C   0  0  0  0  0  0  0  0  0  0  0  0
   -2.8461   -0.9201   -1.6353 C   0  0  0  0  0  0  0  0  0  0  0  0
   -2.1288   -2.0242   -1.7494 N   0  0  0  0  0  0  0  0  0  0  0  0
   -0.8153   -1.9062   -1.8198 C   0  0  0  0  0  0  0  0  0  0  0  0
   -0.1498   -0.6920   -1.7577 C   0  0  0  0  0  0  0  0  0  0  0  0
    0.9243   -0.6395   -1.8386 H   0  0  0  0  0  0  0  0  0  0  0  0
   -0.2657   -2.8305   -1.9358 H   0  0  0  0  0  0  0  0  0  0  0  0
   -3.9180   -1.0601   -1.5985 H   0  0  0  0  0  0  0  0  0  0  0  0
   -2.9161    1.2223   -1.4571 H   0  0  0  0  0  0  0  0  0  0  0  0
   -0.5541    2.4080   -2.1947 H   0  0  0  0  0  0  0  0  0  0  0  0
    0.7583    1.3517    0.7178 C   0  0  1  0  0  0  0  0  0  0  0  0
   -0.5240    0.7214    1.1904 C   0  0  0  0  0  0  0  0  0  0  0  0
   -1.6366    1.5132    1.4446 C   0  0  0  0  0  0  0  0  0  0  0  0
   -2.8345    0.9521    1.8445 C   0  0  0  0  0  0  0  0  0  0  0  0
   -2.9308   -0.4212    2.0030 C   0  0  0  0  0  0  0  0  0  0  0  0
   -1.8305   -1.2226    1.7767 C   0  0  0  0  0  0  0  0  0  0  0  0
   -0.6248   -0.6547    1.3764 C   0  0  0  0  0  0  0  0  0  0  0  0
    0.4137   -1.5156    1.1772 O   0  0  0  0  0  0  0  0  0  0  0  0
    1.6086   -1.0236    0.7347 C   0  0  0  0  0  0  0  0  0  0  0  0
    2.6198   -1.9568    0.5253 C   0  0  0  0  0  0  0  0  0  0  0  0
    3.8542   -1.5485    0.0603 C   0  0  0  0  0  0  0  0  0  0  0  0
    4.0903   -0.2076   -0.1974 C   0  0  0  0  0  0  0  0  0  0  0  0
    3.0871    0.7197    0.0173 C   0  0  0  0  0  0  0  0  0  0  0  0
    1.8388    0.3263    0.4805 C   0  0  0  0  0  0  0  0  0  0  0  0
    3.2599    1.7678   -0.1781 H   0  0  0  0  0  0  0  0  0  0  0  0
    5.0534    0.1155   -0.5610 H   0  0  0  0  0  0  0  0  0  0  0  0
    4.6328   -2.2785   -0.1007 H   0  0  0  0  0  0  0  0  0  0  0  0
    2.4103   -2.9940    0.7337 H   0  0  0  0  0  0  0  0  0  0  0  0
   -1.8781   -2.2929    1.8974 H   0  0  0  0  0  0  0  0  0  0  0  0
   -3.8641   -0.8689    2.3080 H   0  0  0  0  0  0  0  0  0  0  0  0
   -3.6899    1.5829    2.0317 H   0  0  0  0  0  0  0  0  0  0  0  0
   -1.5523    2.5830    1.3150 H   0  0  0  0  0  0  0  0  0  0  0  0
    1.1178    2.0622    1.4766 H   0  0  0  0  0  0  0  0  0  0  0  0
  1  2  2  0
  2  3  1  0
  2 15  1  0
  3  4  1  0
  3 14  1  0
  4  5  2  0
  4  9  1  0
  5  6  1  0
  5 13  1  0
  6  7  2  0
  6 12  1  0
  7  8  1  0
  8  9  2  0
  8 11  1  0
  9 10  1  0
 15 16  1  0
 15 28  1  0
 15 37  1  1
 16 17  2  0
 16 21  1  0
 17 18  1  0
 17 36  1  0
 18 19  2  0
 18 35  1  0
 19 20  1  0
 19 34  1  0
 20 21  2  0
 20 33  1  0
 21 22  1  0
 22 23  1  0
 23 24  2  0
 23 28  1  0
 24 25  1  0
 24 32  1  0
 25 26  2  0
 25 31  1  0
 26 27  1  0
 26 30  1  0
 27 28  2  0
 27 29  1  0
M  END
$$$$

     RDKit          3D

 37 40  0  0  0  0  0  0  0  0999 V2000
   -0.3155   -1.4816   -0.6539 O   0  0  0  0  0  0  0  0  0  0  0  0
   -0.4223   -0.6808    0.2400 C   0  0  0  0  0  0  0  0  0  0  0  0
   -1.6008   -0.1604    0.6910 N   0  0  0  0  0  0  0  0  0  0  0  0
   -2.8905   -0.3990    0.2221 C   0  0  0  0  0  0  0  0  0  0  0  0
   -3.9488    0.2850    0.8221 C   0  0  0  0  0  0  0  0  0  0  0  0
   -5.2330    0.0469    0.3688 C   0  0  0  0  0  0  0  0  0  0  0  0
   -5.5187   -0.7962   -0.6087 N   0  0  0  0  0  0  0  0  0  0  0  0
   -4.5127   -1.4401   -1.1753 C   0  0  0  0  0  0  0  0  0  0  0  0
   -3.1858   -1.2886   -0.8078 C   0  0  0  0  0  0  0  0  0  0  0  0
   -2.4038   -1.8386   -1.3016 H   0  0  0  0  0  0  0  0  0  0  0  0
   -4.7845   -2.1198   -1.9717 H   0  0  0  0  0  0  0  0  0  0  0  0
   -6.0788    0.5576    0.8103 H   0  0  0  0  0  0  0  0  0  0  0  0
   -3.7679    0.9865    1.6238 H   0  0  0  0  0  0  0  0  0  0  0  0
   -1.5438    0.5334    1.4249 H   0  0  0  0  0  0  0  0  0  0  0  0
    0.7944   -0.1011    1.0001 C   0  0  1  0  0  0  0  0  0  0  0  0
    2.0076   -0.9043    0.6246 C   0  0  0  0  0  0  0  0  0  0  0  0
    2.3659   -2.0550    1.3086 C   0  0  0  0  0  0  0  0  0  0  0  0
    3.4235   -2.8328    0.8746 C   0  0  0  0  0  0  0  0  0  0  0  0
    4.1273   -2.4672   -0.2614 C   0  0  0  0  0  0  0  0  0  0  0  0
    3.7935   -1.3151   -0.9456 C   0  0  0  0  0  0  0  0  0  0  0  0
    2.7358   -0.5300   -0.5012 C   0  0  0  0  0  0  0  0  0  0  0  0
    2.4781    0.6212   -1.1946 O   0  0  0  0  0  0  0  0  0  0  0  0
    1.7401    1.5832   -0.5765 C   0  0  0  0  0  0  0  0  0  0  0  0
    1.8153    2.8728   -1.0948 C   0  0  0  0  0  0  0  0  0  0  0  0
    1.1347    3.9055   -0.4814 C   0  0  0  0  0  0  0  0  0  0  0  0
    0.4000    3.6684    0.6691 C   0  0  0  0  0  0  0  0  0  0  0  0
    0.3151    2.3847    1.1766 C   0  0  0  0  0  0  0  0  0  0  0  0
    0.9592    1.3261    0.5515 C   0  0  0  0  0  0  0  0  0  0  0  0
   -0.2502    2.2062    2.0821 H   0  0  0  0  0  0  0  0  0  0  0  0
   -0.1103    4.4790    1.1662 H   0  0  0  0  0  0  0  0  0  0  0  0
    1.1917    4.9020   -0.8916 H   0  0  0  0  0  0  0  0  0  0  0  0
    2.4154    3.0390   -1.9751 H   0  0  0  0  0  0  0  0  0  0  0  0
    4.3335   -1.0062   -1.8265 H   0  0  0  0  0  0  0  0  0  0  0  0
    4.9438   -3.0794   -0.6130 H   0  0  0  0  0  0  0  0  0  0  0  0
    3.6892   -3.7295    1.4132 H   0  0  0  0  0  0  0  0  0  0  0  0
    1.7996   -2.3465    2.1817 H   0  0  0  0  0  0  0  0  0  0  0  0
    0.5957   -0.1609    2.0759 H   0  0  0  0  0  0  0  0  0  0  0  0
  1  2  2  0
  2  3  1  0
  2 15  1  0
  3  4  1  0
  3 14  1  0
  4  5  2  0
  4  9  1  0
  5  6  1  0
  5 13  1  0
  6  7  2  0
  6 12  1  0
  7  8  1  0
  8  9  2  0
  8 11  1  0
  9 10  1  0
 15 16  1  0
 15 28  1  0
 15 37  1  1
 16 17  2  0
 16 21  1  0
 17 18  1  0
 17 36  1  0
 18 19  2  0
 18 35  1  0
 19 20  1  0
 19 34  1  0
 20 21  2  0
 20 33  1  0
 21 22  1  0
 22 23  1  0
 23 24  2  0
 23 28  1  0
 24 25  1  0
 24 32  1  0
 25 26  2  0
 25 31  1  0
 26 27  1  0
 26 30  1  0
 27 28  2  0
 27 29  1  0
M  END
$$$$

     RDKit          3D

 37 40  0  0  0  0  0  0  0  0999 V2000
    0.3618    1.1851    0.8902 O   0  0  0  0  0  0  0  0  0  0  0  0
    0.4633    0.5689   -0.1404 C   0  0  0  0  0  0  0  0  0  0  0  0
    1.6430    0.1716   -0.7025 N   0  0  0  0  0  0  0  0  0  0  0  0
    2.9381    0.3579   -0.2240 C   0  0  0  0  0  0  0  0  0  0  0  0
    3.2374    1.0486    0.9476 C   0  0  0  0  0  0  0  0  0  0  0  0
    4.5693    1.1703    1.3082 C   0  0  0  0  0  0  0  0  0  0  0  0
    5.5764    0.6739    0.6103 N   0  0  0  0  0  0  0  0  0  0  0  0
    5.2869    0.0186   -0.5009 C   0  0  0  0  0  0  0  0  0  0  0  0
    3.9978   -0.1697   -0.9634 C   0  0  0  0  0  0  0  0  0  0  0  0
    3.8147   -0.7140   -1.8788 H   0  0  0  0  0  0  0  0  0  0  0  0
    6.1336   -0.3747   -1.0480 H   0  0  0  0  0  0  0  0  0  0  0  0
    4.8444    1.6989    2.2110 H   0  0  0  0  0  0  0  0  0  0  0  0
    2.4547    1.4731    1.5516 H   0  0  0  0  0  0  0  0  0  0  0  0
    1.5880   -0.3629   -1.5592 H   0  0  0  0  0  0  0  0  0  0  0  0
   -0.7598    0.1016   -0.9597 C   0  0  1  0  0  0  0  0  0  0  0  0
   -1.0269   -1.3205   -0.5396 C   0  0  0  0  0  0  0  0  0  0  0  0
   -0.3695   -2.3966   -1.1189 C   0  0  0  0  0  0  0  0  0  0  0  0
   -0.5561   -3.6829   -0.6472 C   0  0  0  0  0  0  0  0  0  0  0  0
   -1.4074   -3.9054    0.4231 C   0  0  0  0  0  0  0  0  0  0  0  0
   -2.0934   -2.8519    0.9932 C   0  0  0  0  0  0  0  0  0  0  0  0
   -1.9127   -1.5583    0.5118 C   0  0  0  0  0  0  0  0  0  0  0  0
   -2.6554   -0.5762    1.0905 O   0  0  0  0  0  0  0  0  0  0  0  0
   -2.7646    0.6194    0.4379 C   0  0  0  0  0  0  0  0  0  0  0  0
   -3.7863    1.4703    0.8456 C   0  0  0  0  0  0  0  0  0  0  0  0
   -3.9748    2.6768    0.2014 C   0  0  0  0  0  0  0  0  0  0  0  0
   -3.1598    3.0349   -0.8604 C   0  0  0  0  0  0  0  0  0  0  0  0
   -2.1399    2.1906   -1.2585 C   0  0  0  0  0  0  0  0  0  0  0  0
   -1.9277    0.9820   -0.6135 C   0  0  0  0  0  0  0  0  0  0  0  0
   -1.4891    2.4732   -2.0739 H   0  0  0  0  0  0  0  0  0  0  0  0
   -3.3104    3.9749   -1.3686 H   0  0  0  0  0  0  0  0  0  0  0  0
   -4.7639    3.3381    0.5255 H   0  0  0  0  0  0  0  0  0  0  0  0
   -4.4141    1.1668    1.6683 H   0  0  0  0  0  0  0  0  0  0  0  0
   -2.7774   -3.0036    1.8129 H   0  0  0  0  0  0  0  0  0  0  0  0
   -1.5472   -4.9048    0.8054 H   0  0  0  0  0  0  0  0  0  0  0  0
   -0.0341   -4.5069   -1.1086 H   0  0  0  0  0  0  0  0  0  0  0  0
    0.2927   -2.2283   -1.9575 H   0  0  0  0  0  0  0  0  0  0  0  0
   -0.5253    0.1621   -2.0281 H   0  0  0  0  0  0  0  0  0  0  0  0
  1  2  2  0
  2  3  1  0
  2 15  1  0
  3  4  1  0
  3 14  1  0
  4  5  2  0
  4  9  1  0
  5  6  1  0
  5 13  1  0
  6  7  2  0
  6 12  1  0
  7  8  1  0
  8  9  2  0
  8 11  1  0
  9 10  1  0
 15 16  1  0
 15 28  1  0
 15 37  1  6
 16 17  2  0
 16 21  1  0
 17 18  1  0
 17 36  1  0
 18 19  2  0
 18 35  1  0
 19 20  1  0
 19 34  1  0
 20 21  2  0
 20 33  1  0
 21 22  1  0
 22 23  1  0
 23 24  2  0
 23 28  1  0
 24 25  1  0
 24 32  1  0
 25 26  2  0
 25 31  1  0
 26 27  1  0
 26 30  1  0
 27 28  2  0
 27 29  1  0
M  END
$$$$

     RDKit          3D

 37 40  0  0  0  0  0  0  0  0999 V2000
   -0.5386   -0.3812    2.2488 O   0  0  0  0  0  0  0  0  0  0  0  0
    0.2181   -0.4072    1.3073 C   0  0  0  0  0  0  0  0  0  0  0  0
    1.5709   -0.4049    1.5192 N   0  0  0  0  0  0  0  0  0  0  0  0
    2.6422   -0.5631    0.6391 C   0  0  0  0  0  0  0  0  0  0  0  0
    3.7614    0.2605    0.7628 C   0  0  0  0  0  0  0  0  0  0  0  0
    4.8189    0.0767   -0.1108 C   0  0  0  0  0  0  0  0  0  0  0  0
    4.8335   -0.8453   -1.0580 N   0  0  0  0  0  0  0  0  0  0  0  0
    3.7860   -1.6446   -1.1553 C   0  0  0  0  0  0  0  0  0  0  0  0
    2.6723   -1.5593   -0.3360 C   0  0  0  0  0  0  0  0  0  0  0  0
    1.8650   -2.2679   -0.4315 H   0  0  0  0  0  0  0  0  0  0  0  0
    3.8455   -2.4018   -1.9257 H   0  0  0  0  0  0  0  0  0  0  0  0
    5.6995    0.7024   -0.0530 H   0  0  0  0  0  0  0  0  0  0  0  0
    3.7924    1.0290    1.5200 H   0  0  0  0  0  0  0  0  0  0  0  0
    1.8219   -0.1806    2.4756 H   0  0  0  0  0  0  0  0  0  0  0  0
   -0.2675   -0.2830   -0.1420 C   0  0  1  0  0  0  0  0  0  0  0  0
   -1.5516   -1.0498   -0.2954 C   0  0  0  0  0  0  0  0  0  0  0  0
   -1.5506   -2.4108   -0.5611 C   0  0  0  0  0  0  0  0  0  0  0  0
   -2.7326   -3.1262   -0.6107 C   0  0  0  0  0  0  0  0  0  0  0  0
   -3.9367   -2.4798   -0.3836 C   0  0  0  0  0  0  0  0  0  0  0  0
   -3.9582   -1.1225   -0.1329 C   0  0  0  0  0  0  0  0  0  0  0  0
   -2.7679   -0.4033   -0.0914 C   0  0  0  0  0  0  0  0  0  0  0  0
   -2.8702    0.9408    0.1215 O   0  0  0  0  0  0  0  0  0  0  0  0
   -1.7786    1.7192   -0.1107 C   0  0  0  0  0  0  0  0  0  0  0  0
   -1.9862    3.0945   -0.1709 C   0  0  0  0  0  0  0  0  0  0  0  0
   -0.9305    3.9427   -0.4389 C   0  0  0  0  0  0  0  0  0  0  0  0
    0.3357    3.4285   -0.6689 C   0  0  0  0  0  0  0  0  0  0  0  0
    0.5438    2.0631   -0.6024 C   0  0  0  0  0  0  0  0  0  0  0  0
   -0.5024    1.1981   -0.3155 C   0  0  0  0  0  0  0  0  0  0  0  0
    1.5315    1.6579   -0.7737 H   0  0  0  0  0  0  0  0  0  0  0  0
    1.1599    4.0885   -0.8915 H   0  0  0  0  0  0  0  0  0  0  0  0
   -1.0973    5.0084   -0.4767 H   0  0  0  0  0  0  0  0  0  0  0  0
   -2.9823    3.4716   -0.0023 H   0  0  0  0  0  0  0  0  0  0  0  0
   -4.8841   -0.5961    0.0369 H   0  0  0  0  0  0  0  0  0  0  0  0
   -4.8625   -3.0342   -0.4076 H   0  0  0  0  0  0  0  0  0  0  0  0
   -2.7135   -4.1858   -0.8149 H   0  0  0  0  0  0  0  0  0  0  0  0
   -0.6090   -2.9159   -0.7244 H   0  0  0  0  0  0  0  0  0  0  0  0
    0.4919   -0.6276   -0.8447 H   0  0  0  0  0  0  0  0  0  0  0  0
  1  2  2  0
  2  3  1  0
  2 15  1  0
  3  4  1  0
  3 14  1  0
  4  5  2  0
  4  9  1  0
  5  6  1  0
  5 13  1  0
  6  7  2  0
  6 12  1  0
  7  8  1  0
  8  9  2  0
  8 11  1  0
  9 10  1  0
 15 16  1  0
 15 28  1  0
 15 37  1  6
 16 17  2  0
 16 21  1  0
 17 18  1  0
 17 36  1  0
 18 19  2  0
 18 35  1  0
 19 20  1  0
 19 34  1  0
 20 21  2  0
 20 33  1  0
 21 22  1  0
 22 23  1  0
 23 24  2  0
 23 28  1  0
 24 25  1  0
 24 32  1  0
 25 26  2  0
 25 31  1  0
 26 27  1  0
 26 30  1  0
 27 28  2  0
 27 29  1  0
M  END
$$$$
