
     RDKit          3D

 54 57  0  0  0  0  0  0  0  0999 V2000
   -2.4059   -1.7210    1.5465 C   0  0  0  0  0  0  0  0  0  0  0  0
   -1.4057   -1.9563    1.8981 H   0  0  0  0  0  0  0  0  0  0  0  0
   -2.7917   -0.8784    2.1144 H   0  0  0  0  0  0  0  0  0  0  0  0
   -3.0406   -2.5784    1.7617 H   0  0  0  0  0  0  0  0  0  0  0  0
   -2.4311   -1.4429    0.0423 C   0  0  1  0  0  0  0  0  0  0  0  0
   -2.0608   -2.3411   -0.4636 H   0  0  0  0  0  0  0  0  0  0  0  0
   -3.8966   -1.2600   -0.3873 C   0  0  0  0  0  0  0  0  0  0  0  0
   -4.4742    0.0273    0.1406 C   0  0  0  0  0  0  0  0  0  0  0  0
   -5.5025    0.0833    0.7681 O   0  0  0  0  0  0  0  0  0  0  0  0
   -3.6523    1.2436   -0.2008 C   0  0  0  0  0  0  0  0  0  0  0  0
   -4.0544    2.1074    0.3328 H   0  0  0  0  0  0  0  0  0  0  0  0
   -3.7596    1.4377   -1.2707 H   0  0  0  0  0  0  0  0  0  0  0  0
   -2.1727    1.0550    0.1554 C   0  0  2  0  0  0  0  0  0  0  0  0
   -1.3662    2.2880   -0.2473 C   0  0  0  0  0  0  0  0  0  0  0  0
    0.0579    2.1730    0.2803 C   0  0  0  0  0  0  0  0  0  0  0  0
    0.7347    0.9022   -0.2313 C   0  0  1  0  0  0  0  0  0  0  0  0
    2.1044    0.7194    0.4155 C   0  0  2  0  0  0  0  0  0  0  0  0
    3.1392    1.8394    0.2933 C   0  0  0  0  0  0  0  0  0  0  0  0
    2.9273    2.6646    0.9710 H   0  0  0  0  0  0  0  0  0  0  0  0
    3.1559    2.2372   -0.7219 H   0  0  0  0  0  0  0  0  0  0  0  0
    4.4679    1.1445    0.6452 C   0  0  0  0  0  0  0  0  0  0  0  0
    5.2377    1.3507   -0.1006 H   0  0  0  0  0  0  0  0  0  0  0  0
    4.8528    1.4816    1.6060 H   0  0  0  0  0  0  0  0  0  0  0  0
    4.1778   -0.3783    0.6831 C   0  0  2  0  0  0  0  0  0  0  0  0
    5.2425   -1.1705    0.2357 O   0  0  0  0  0  0  0  0  0  0  0  0
    5.4468   -0.9232   -0.6736 H   0  0  0  0  0  0  0  0  0  0  0  0
    2.8497   -0.5195   -0.1005 C   0  0  1  0  0  0  0  0  0  0  0  0
    2.0156   -1.7487    0.2484 C   0  0  0  0  0  0  0  0  0  0  0  0
    2.4933   -2.6554   -0.1276 H   0  0  0  0  0  0  0  0  0  0  0  0
    0.6057   -1.6269   -0.3375 C   0  0  0  0  0  0  0  0  0  0  0  0
    0.6639   -1.6588   -1.4245 H   0  0  0  0  0  0  0  0  0  0  0  0
    0.0329   -2.4966   -0.0148 H   0  0  0  0  0  0  0  0  0  0  0  0
   -0.1104   -0.3440    0.1102 C   0  0  2  0  0  0  0  0  0  0  0  0
   -0.1738   -0.3669    1.2031 H   0  0  0  0  0  0  0  0  0  0  0  0
   -1.5667   -0.2401   -0.4270 C   0  0  1  0  0  0  0  0  0  0  0  0
   -1.5662   -0.2305   -1.9637 C   0  0  0  0  0  0  0  0  0  0  0  0
   -0.7783    0.4019   -2.3586 H   0  0  0  0  0  0  0  0  0  0  0  0
   -2.5073    0.1364   -2.3622 H   0  0  0  0  0  0  0  0  0  0  0  0
   -1.4127   -1.2366   -2.3473 H   0  0  0  0  0  0  0  0  0  0  0  0
    1.9478   -1.8381    1.3355 H   0  0  0  0  0  0  0  0  0  0  0  0
    3.1503   -0.4895   -1.6025 C   0  0  0  0  0  0  0  0  0  0  0  0
    3.8067    0.3377   -1.8609 H   0  0  0  0  0  0  0  0  0  0  0  0
    3.6310   -1.4224   -1.8941 H   0  0  0  0  0  0  0  0  0  0  0  0
    2.2438   -0.3904   -2.1901 H   0  0  0  0  0  0  0  0  0  0  0  0
    4.0182   -0.7026    1.7165 H   0  0  0  0  0  0  0  0  0  0  0  0
    1.9354    0.5583    1.4879 H   0  0  0  0  0  0  0  0  0  0  0  0
    0.8609    0.9951   -1.3119 H   0  0  0  0  0  0  0  0  0  0  0  0
    0.6375    3.0455   -0.0257 H   0  0  0  0  0  0  0  0  0  0  0  0
    0.0360    2.1538    1.3729 H   0  0  0  0  0  0  0  0  0  0  0  0
   -1.3577    2.3969   -1.3326 H   0  0  0  0  0  0  0  0  0  0  0  0
   -1.8386    3.1807    0.1690 H   0  0  0  0  0  0  0  0  0  0  0  0
   -2.1109    0.9789    1.2464 H   0  0  0  0  0  0  0  0  0  0  0  0
   -3.9692   -1.2423   -1.4758 H   0  0  0  0  0  0  0  0  0  0  0  0
   -4.4978   -2.0960   -0.0249 H   0  0  0  0  0  0  0  0  0  0  0  0
  1  2  1  0
  1  3  1  0
  1  4  1  0
  1  5  1  0
  5  6  1  6
  5  7  1  0
  5 35  1  0
  7  8  1  0
  7 53  1  0
  7 54  1  0
  8  9  2  0
  8 10  1  0
 10 11  1  0
 10 12  1  0
 10 13  1  0
 13 14  1  0
 13 35  1  0
 13 52  1  1
 14 15  1  0
 14 50  1  0
 14 51  1  0
 15 16  1  0
 15 48  1  0
 15 49  1  0
 16 17  1  0
 16 33  1  0
 16 47  1  6
 17 18  1  0
 17 27  1  0
 17 46  1  1
 18 19  1  0
 18 20  1  0
 18 21  1  0
 21 22  1  0
 21 23  1  0
 21 24  1  0
 24 25  1  0
 24 27  1  0
 24 45  1  1
 25 26  1  0
 27 28  1  0
 27 41  1  6
 28 29  1  0
 28 30  1  0
 28 40  1  0
 30 31  1  0
 30 32  1  0
 30 33  1  0
 33 34  1  1
 33 35  1  0
 35 36  1  6
 36 37  1  0
 36 38  1  0
 36 39  1  0
 41 42  1  0
 41 43  1  0
 41 44  1  0
M  END
$$$$

     RDKit          3D

 54 57  0  0  0  0  0  0  0  0999 V2000
   -1.9655   -1.9368    1.8291 C   0  0  0  0  0  0  0  0  0  0  0  0
   -2.6687   -2.6872    2.1862 H   0  0  0  0  0  0  0  0  0  0  0  0
   -0.9861   -2.4028    1.7861 H   0  0  0  0  0  0  0  0  0  0  0  0
   -1.9365   -1.1306    2.5594 H   0  0  0  0  0  0  0  0  0  0  0  0
   -2.4335   -1.4304    0.4612 C   0  0  1  0  0  0  0  0  0  0  0  0
   -2.3441   -2.2617   -0.2446 H   0  0  0  0  0  0  0  0  0  0  0  0
   -3.9385   -1.1019    0.6001 C   0  0  0  0  0  0  0  0  0  0  0  0
   -4.4197    0.0372   -0.2539 C   0  0  0  0  0  0  0  0  0  0  0  0
   -5.3694   -0.0364   -0.9951 O   0  0  0  0  0  0  0  0  0  0  0  0
   -3.6419    1.3089   -0.0319 C   0  0  0  0  0  0  0  0  0  0  0  0
   -4.1912    1.8951    0.7106 H   0  0  0  0  0  0  0  0  0  0  0  0
   -3.6497    1.8918   -0.9550 H   0  0  0  0  0  0  0  0  0  0  0  0
   -2.2078    1.0670    0.4570 C   0  0  2  0  0  0  0  0  0  0  0  0
   -1.3711    2.3063    0.1406 C   0  0  0  0  0  0  0  0  0  0  0  0
    0.0669    2.1332    0.6000 C   0  0  0  0  0  0  0  0  0  0  0  0
    0.6925    0.9228   -0.0870 C   0  0  1  0  0  0  0  0  0  0  0  0
    2.1154    0.6950    0.4172 C   0  0  2  0  0  0  0  0  0  0  0  0
    3.1394    1.8252    0.2993 C   0  0  0  0  0  0  0  0  0  0  0  0
    2.9842    2.5956    1.0527 H   0  0  0  0  0  0  0  0  0  0  0  0
    3.0773    2.2987   -0.6809 H   0  0  0  0  0  0  0  0  0  0  0  0
    4.4897    1.1101    0.4937 C   0  0  0  0  0  0  0  0  0  0  0  0
    5.2034    1.3812   -0.2861 H   0  0  0  0  0  0  0  0  0  0  0  0
    4.9438    1.3685    1.4488 H   0  0  0  0  0  0  0  0  0  0  0  0
    4.2019   -0.4126    0.4277 C   0  0  2  0  0  0  0  0  0  0  0  0
    5.2252   -1.1580   -0.1713 O   0  0  0  0  0  0  0  0  0  0  0  0
    5.3460   -0.8413   -1.0740 H   0  0  0  0  0  0  0  0  0  0  0  0
    2.8138   -0.4959   -0.2532 C   0  0  1  0  0  0  0  0  0  0  0  0
    2.0063   -1.7517    0.0651 C   0  0  0  0  0  0  0  0  0  0  0  0
    2.4472   -2.6242   -0.4208 H   0  0  0  0  0  0  0  0  0  0  0  0
    0.5583   -1.5767   -0.4000 C   0  0  0  0  0  0  0  0  0  0  0  0
    0.5547   -1.4827   -1.4843 H   0  0  0  0  0  0  0  0  0  0  0  0
    0.0003   -2.4797   -0.1519 H   0  0  0  0  0  0  0  0  0  0  0  0
   -0.1181   -0.3495    0.2324 C   0  0  2  0  0  0  0  0  0  0  0  0
   -0.0621   -0.4608    1.3192 H   0  0  0  0  0  0  0  0  0  0  0  0
   -1.6247   -0.2377   -0.1359 C   0  0  1  0  0  0  0  0  0  0  0  0
   -1.8150   -0.2620   -1.6583 C   0  0  0  0  0  0  0  0  0  0  0  0
   -1.3028    0.5702   -2.1325 H   0  0  0  0  0  0  0  0  0  0  0  0
   -2.8674   -0.2072   -1.9208 H   0  0  0  0  0  0  0  0  0  0  0  0
   -1.4310   -1.1864   -2.0799 H   0  0  0  0  0  0  0  0  0  0  0  0
    2.0264   -1.9287    1.1433 H   0  0  0  0  0  0  0  0  0  0  0  0
    2.9919   -0.3409   -1.7672 C   0  0  0  0  0  0  0  0  0  0  0  0
    3.4198   -1.2541   -2.1786 H   0  0  0  0  0  0  0  0  0  0  0  0
    2.0448   -0.1667   -2.2667 H   0  0  0  0  0  0  0  0  0  0  0  0
    3.6492    0.4916   -2.0059 H   0  0  0  0  0  0  0  0  0  0  0  0
    4.1289   -0.8233    1.4398 H   0  0  0  0  0  0  0  0  0  0  0  0
    2.0387    0.4490    1.4843 H   0  0  0  0  0  0  0  0  0  0  0  0
    0.7043    1.1061   -1.1637 H   0  0  0  0  0  0  0  0  0  0  0  0
    0.6400    3.0314    0.3646 H   0  0  0  0  0  0  0  0  0  0  0  0
    0.0946    1.9920    1.6833 H   0  0  0  0  0  0  0  0  0  0  0  0
   -1.3853    2.4995   -0.9336 H   0  0  0  0  0  0  0  0  0  0  0  0
   -1.8200    3.1715    0.6345 H   0  0  0  0  0  0  0  0  0  0  0  0
   -2.2164    0.9473    1.5459 H   0  0  0  0  0  0  0  0  0  0  0  0
   -4.5391   -1.9893    0.3960 H   0  0  0  0  0  0  0  0  0  0  0  0
   -4.1359   -0.7915    1.6303 H   0  0  0  0  0  0  0  0  0  0  0  0
  1  2  1  0
  1  3  1  0
  1  4  1  0
  1  5  1  0
  5  6  1  6
  5  7  1  0
  5 35  1  0
  7  8  1  0
  7 53  1  0
  7 54  1  0
  8  9  2  0
  8 10  1  0
 10 11  1  0
 10 12  1  0
 10 13  1  0
 13 14  1  0
 13 35  1  0
 13 52  1  1
 14 15  1  0
 14 50  1  0
 14 51  1  0
 15 16  1  0
 15 48  1  0
 15 49  1  0
 16 17  1  0
 16 33  1  0
 16 47  1  6
 17 18  1  0
 17 27  1  0
 17 46  1  1
 18 19  1  0
 18 20  1  0
 18 21  1  0
 21 22  1  0
 21 23  1  0
 21 24  1  0
 24 25  1  0
 24 27  1  0
 24 45  1  1
 25 26  1  0
 27 28  1  0
 27 41  1  6
 28 29  1  0
 28 30  1  0
 28 40  1  0
 30 31  1  0
 30 32  1  0
 30 33  1  0
 33 34  1  1
 33 35  1  0
 35 36  1  6
 36 37  1  0
 36 38  1  0
 36 39  1  0
 41 42  1  0
 41 43  1  0
 41 44  1  0
M  END
$$$$

     RDKit          3D

 54 57  0  0  0  0  0  0  0  0999 V2000
   -2.0991   -1.8582    1.8866 C   0  0  0  0  0  0  0  0  0  0  0  0
   -2.7541   -2.6781    2.1777 H   0  0  0  0  0  0  0  0  0  0  0  0
   -1.0777   -2.2074    1.9962 H   0  0  0  0  0  0  0  0  0  0  0  0
   -2.2626   -1.0353    2.5783 H   0  0  0  0  0  0  0  0  0  0  0  0
   -2.4204   -1.4516    0.4441 C   0  0  1  0  0  0  0  0  0  0  0  0
   -2.1738   -2.3070   -0.1927 H   0  0  0  0  0  0  0  0  0  0  0  0
   -3.9469   -1.2287    0.3390 C   0  0  0  0  0  0  0  0  0  0  0  0
   -4.3915    0.0437   -0.3302 C   0  0  0  0  0  0  0  0  0  0  0  0
   -5.3243    0.0841   -1.0965 O   0  0  0  0  0  0  0  0  0  0  0  0
   -3.6538    1.2816    0.1094 C   0  0  0  0  0  0  0  0  0  0  0  0
   -4.2166    1.6984    0.9485 H   0  0  0  0  0  0  0  0  0  0  0  0
   -3.7125    2.0129   -0.6988 H   0  0  0  0  0  0  0  0  0  0  0  0
   -2.1949    1.0456    0.5294 C   0  0  2  0  0  0  0  0  0  0  0  0
   -1.3789    2.2949    0.1936 C   0  0  0  0  0  0  0  0  0  0  0  0
    0.0756    2.1339    0.6084 C   0  0  0  0  0  0  0  0  0  0  0  0
    0.6941    0.9136   -0.0670 C   0  0  1  0  0  0  0  0  0  0  0  0
    2.1296    0.7092    0.4075 C   0  0  2  0  0  0  0  0  0  0  0  0
    3.1423    1.8396    0.2078 C   0  0  0  0  0  0  0  0  0  0  0  0
    3.0114    2.6378    0.9363 H   0  0  0  0  0  0  0  0  0  0  0  0
    3.0377    2.2744   -0.7865 H   0  0  0  0  0  0  0  0  0  0  0  0
    4.5041    1.1394    0.3734 C   0  0  0  0  0  0  0  0  0  0  0  0
    5.1784    1.3715   -0.4530 H   0  0  0  0  0  0  0  0  0  0  0  0
    5.0025    1.4473    1.2906 H   0  0  0  0  0  0  0  0  0  0  0  0
    4.2209   -0.3855    0.3980 C   0  0  2  0  0  0  0  0  0  0  0  0
    5.2275   -1.1589   -0.1924 O   0  0  0  0  0  0  0  0  0  0  0  0
    5.3184   -0.8928   -1.1150 H   0  0  0  0  0  0  0  0  0  0  0  0
    2.8122   -0.5060   -0.2327 C   0  0  1  0  0  0  0  0  0  0  0  0
    2.0218   -1.7493    0.1689 C   0  0  0  0  0  0  0  0  0  0  0  0
    2.4593   -2.6442   -0.2774 H   0  0  0  0  0  0  0  0  0  0  0  0
    0.5617   -1.6118   -0.2724 C   0  0  0  0  0  0  0  0  0  0  0  0
    0.5252   -1.5947   -1.3598 H   0  0  0  0  0  0  0  0  0  0  0  0
    0.0201   -2.4986    0.0568 H   0  0  0  0  0  0  0  0  0  0  0  0
   -0.1116   -0.3506    0.2941 C   0  0  2  0  0  0  0  0  0  0  0  0
   -0.0714   -0.4164    1.3855 H   0  0  0  0  0  0  0  0  0  0  0  0
   -1.6117   -0.2393   -0.1000 C   0  0  1  0  0  0  0  0  0  0  0  0
   -1.7769   -0.2187   -1.6260 C   0  0  0  0  0  0  0  0  0  0  0  0
   -2.8165   -0.0832   -1.9049 H   0  0  0  0  0  0  0  0  0  0  0  0
   -1.4462   -1.1576   -2.0605 H   0  0  0  0  0  0  0  0  0  0  0  0
   -1.2023    0.5860   -2.0746 H   0  0  0  0  0  0  0  0  0  0  0  0
    2.0663   -1.8677    1.2550 H   0  0  0  0  0  0  0  0  0  0  0  0
    2.9380   -0.4228   -1.7577 C   0  0  0  0  0  0  0  0  0  0  0  0
    1.9730   -0.2815   -2.2334 H   0  0  0  0  0  0  0  0  0  0  0  0
    3.5793    0.4032   -2.0586 H   0  0  0  0  0  0  0  0  0  0  0  0
    3.3602   -1.3514   -2.1393 H   0  0  0  0  0  0  0  0  0  0  0  0
    4.1811   -0.7408    1.4328 H   0  0  0  0  0  0  0  0  0  0  0  0
    2.0846    0.5091    1.4855 H   0  0  0  0  0  0  0  0  0  0  0  0
    0.6887    1.0764   -1.1467 H   0  0  0  0  0  0  0  0  0  0  0  0
    0.6366    3.0308    0.3393 H   0  0  0  0  0  0  0  0  0  0  0  0
    0.1354    2.0145    1.6932 H   0  0  0  0  0  0  0  0  0  0  0  0
   -1.4311    2.4939   -0.8781 H   0  0  0  0  0  0  0  0  0  0  0  0
   -1.8181    3.1531    0.7077 H   0  0  0  0  0  0  0  0  0  0  0  0
   -2.1532    0.9135    1.6156 H   0  0  0  0  0  0  0  0  0  0  0  0
   -4.4276   -2.0688   -0.1655 H   0  0  0  0  0  0  0  0  0  0  0  0
   -4.3709   -1.1691    1.3450 H   0  0  0  0  0  0  0  0  0  0  0  0
  1  2  1  0
  1  3  1  0
  1  4  1  0
  1  5  1  0
  5  6  1  6
  5  7  1  0
  5 35  1  0
  7  8  1  0
  7 53  1  0
  7 54  1  0
  8  9  2  0
  8 10  1  0
 10 11  1  0
 10 12  1  0
 10 13  1  0
 13 14  1  0
 13 35  1  0
 13 52  1  1
 14 15  1  0
 14 50  1  0
 14 51  1  0
 15 16  1  0
 15 48  1  0
 15 49  1  0
 16 17  1  0
 16 33  1  0
 16 47  1  6
 17 18  1  0
 17 27  1  0
 17 46  1  1
 18 19  1  0
 18 20  1  0
 18 21  1  0
 21 22  1  0
 21 23  1  0
 21 24  1  0
 24 25  1  0
 24 27  1  0
 24 45  1  1
 25 26  1  0
 27 28  1  0
 27 41  1  6
 28 29  1  0
 28 30  1  0
 28 40  1  0
 30 31  1  0
 30 32  1  0
 30 33  1  0
 33 34  1  1
 33 35  1  0
 35 36  1  6
 36 37  1  0
 36 38  1  0
 36 39  1  0
 41 42  1  0
 41 43  1  0
 41 44  1  0
M  END
$$$$

     RDKit          3D

 54 57  0  0  0  0  0  0  0  0999 V2000
   -2.1406   -1.8284    1.9039 C   0  0  0  0  0  0  0  0  0  0  0  0
   -2.7765   -2.6671    2.1818 H   0  0  0  0  0  0  0  0  0  0  0  0
   -1.1110   -2.1372    2.0587 H   0  0  0  0  0  0  0  0  0  0  0  0
   -2.3608   -1.0029    2.5769 H   0  0  0  0  0  0  0  0  0  0  0  0
   -2.4177   -1.4550    0.4448 C   0  0  1  0  0  0  0  0  0  0  0  0
   -2.1362   -2.3189   -0.1647 H   0  0  0  0  0  0  0  0  0  0  0  0
   -3.9413   -1.2579    0.2721 C   0  0  0  0  0  0  0  0  0  0  0  0
   -4.3897    0.0437   -0.3358 C   0  0  0  0  0  0  0  0  0  0  0  0
   -5.3277    0.1108   -1.0940 O   0  0  0  0  0  0  0  0  0  0  0  0
   -3.6571    1.2713    0.1407 C   0  0  0  0  0  0  0  0  0  0  0  0
   -4.2169    1.6520    1.0000 H   0  0  0  0  0  0  0  0  0  0  0  0
   -3.7359    2.0301   -0.6404 H   0  0  0  0  0  0  0  0  0  0  0  0
   -2.1901    1.0421    0.5365 C   0  0  2  0  0  0  0  0  0  0  0  0
   -1.3808    2.2902    0.1833 C   0  0  0  0  0  0  0  0  0  0  0  0
    0.0751    2.1388    0.5961 C   0  0  0  0  0  0  0  0  0  0  0  0
    0.6967    0.9124   -0.0690 C   0  0  1  0  0  0  0  0  0  0  0  0
    2.1325    0.7118    0.4072 C   0  0  2  0  0  0  0  0  0  0  0  0
    3.1469    1.8392    0.1996 C   0  0  0  0  0  0  0  0  0  0  0  0
    3.0188    2.6405    0.9247 H   0  0  0  0  0  0  0  0  0  0  0  0
    3.0412    2.2693   -0.7965 H   0  0  0  0  0  0  0  0  0  0  0  0
    4.5089    1.1398    0.3665 C   0  0  0  0  0  0  0  0  0  0  0  0
    5.1810    1.3683   -0.4628 H   0  0  0  0  0  0  0  0  0  0  0  0
    5.0090    1.4510    1.2812 H   0  0  0  0  0  0  0  0  0  0  0  0
    4.2251   -0.3844    0.3965 C   0  0  2  0  0  0  0  0  0  0  0  0
    5.2293   -1.1618   -0.1950 O   0  0  0  0  0  0  0  0  0  0  0  0
    5.3121   -0.9015   -1.1199 H   0  0  0  0  0  0  0  0  0  0  0  0
    2.8148   -0.5072   -0.2289 C   0  0  1  0  0  0  0  0  0  0  0  0
    2.0272   -1.7477    0.1810 C   0  0  0  0  0  0  0  0  0  0  0  0
    2.4622   -2.6446   -0.2655 H   0  0  0  0  0  0  0  0  0  0  0  0
    0.5639   -1.6161   -0.2504 C   0  0  0  0  0  0  0  0  0  0  0  0
    0.5174   -1.6162   -1.3377 H   0  0  0  0  0  0  0  0  0  0  0  0
    0.0284   -2.4988    0.0989 H   0  0  0  0  0  0  0  0  0  0  0  0
   -0.1092   -0.3500    0.3031 C   0  0  2  0  0  0  0  0  0  0  0  0
   -0.0714   -0.4054    1.3958 H   0  0  0  0  0  0  0  0  0  0  0  0
   -1.6090   -0.2414   -0.0957 C   0  0  1  0  0  0  0  0  0  0  0  0
   -1.7694   -0.2202   -1.6211 C   0  0  0  0  0  0  0  0  0  0  0  0
   -1.1810    0.5717   -2.0730 H   0  0  0  0  0  0  0  0  0  0  0  0
   -2.8070   -0.0657   -1.9027 H   0  0  0  0  0  0  0  0  0  0  0  0
   -1.4566   -1.1680   -2.0528 H   0  0  0  0  0  0  0  0  0  0  0  0
    2.0781   -1.8617    1.2667 H   0  0  0  0  0  0  0  0  0  0  0  0
    2.9363   -0.4277   -1.7544 C   0  0  0  0  0  0  0  0  0  0  0  0
    1.9700   -0.2820   -2.2253 H   0  0  0  0  0  0  0  0  0  0  0  0
    3.5803    0.3935   -2.0585 H   0  0  0  0  0  0  0  0  0  0  0  0
    3.3529   -1.3588   -2.1352 H   0  0  0  0  0  0  0  0  0  0  0  0
    4.1887   -0.7368    1.4324 H   0  0  0  0  0  0  0  0  0  0  0  0
    2.0892    0.5172    1.4864 H   0  0  0  0  0  0  0  0  0  0  0  0
    0.6898    1.0651   -1.1497 H   0  0  0  0  0  0  0  0  0  0  0  0
    0.6313    3.0350    0.3146 H   0  0  0  0  0  0  0  0  0  0  0  0
    0.1396    2.0333    1.6816 H   0  0  0  0  0  0  0  0  0  0  0  0
   -1.4375    2.4773   -0.8906 H   0  0  0  0  0  0  0  0  0  0  0  0
   -1.8206    3.1531    0.6897 H   0  0  0  0  0  0  0  0  0  0  0  0
   -2.1307    0.9166    1.6225 H   0  0  0  0  0  0  0  0  0  0  0  0
   -4.3766   -2.0713   -0.3111 H   0  0  0  0  0  0  0  0  0  0  0  0
   -4.4195   -1.2803    1.2564 H   0  0  0  0  0  0  0  0  0  0  0  0
  1  2  1  0
  1  3  1  0
  1  4  1  0
  1  5  1  0
  5  6  1  6
  5  7  1  0
  5 35  1  0
  7  8  1  0
  7 53  1  0
  7 54  1  0
  8  9  2  0
  8 10  1  0
 10 11  1  0
 10 12  1  0
 10 13  1  0
 13 14  1  0
 13 35  1  0
 13 52  1  1
 14 15  1  0
 14 50  1  0
 14 51  1  0
 15 16  1  0
 15 48  1  0
 15 49  1  0
 16 17  1  0
 16 33  1  0
 16 47  1  6
 17 18  1  0
 17 27  1  0
 17 46  1  1
 18 19  1  0
 18 20  1  0
 18 21  1  0
 21 22  1  0
 21 23  1  0
 21 24  1  0
 24 25  1  0
 24 27  1  0
 24 45  1  1
 25 26  1  0
 27 28  1  0
 27 41  1  6
 28 29  1  0
 28 30  1  0
 28 40  1  0
 30 31  1  0
 30 32  1  0
 30 33  1  0
 33 34  1  1
 33 35  1  0
 35 36  1  6
 36 37  1  0
 36 38  1  0
 36 39  1  0
 41 42  1  0
 41 43  1  0
 41 44  1  0
M  END
$$$$

     RDKit          3D

 54 57  0  0  0  0  0  0  0  0999 V2000
   -1.9621   -1.9572    1.8077 C   0  0  0  0  0  0  0  0  0  0  0  0
   -1.9323   -1.1616    2.5496 H   0  0  0  0  0  0  0  0  0  0  0  0
   -2.6645   -2.7128    2.1561 H   0  0  0  0  0  0  0  0  0  0  0  0
   -0.9826   -2.4217    1.7555 H   0  0  0  0  0  0  0  0  0  0  0  0
   -2.4348   -1.4318    0.4482 C   0  0  1  0  0  0  0  0  0  0  0  0
   -2.3507   -2.2545   -0.2682 H   0  0  0  0  0  0  0  0  0  0  0  0
   -3.9383   -1.1019    0.5981 C   0  0  0  0  0  0  0  0  0  0  0  0
   -4.4212    0.0389   -0.2529 C   0  0  0  0  0  0  0  0  0  0  0  0
   -5.3702   -0.0339   -0.9946 O   0  0  0  0  0  0  0  0  0  0  0  0
   -3.6440    1.3098   -0.0262 C   0  0  0  0  0  0  0  0  0  0  0  0
   -4.1937    1.8945    0.7172 H   0  0  0  0  0  0  0  0  0  0  0  0
   -3.6510    1.8955   -0.9476 H   0  0  0  0  0  0  0  0  0  0  0  0
   -2.2100    1.0664    0.4626 C   0  0  2  0  0  0  0  0  0  0  0  0
   -1.3746    2.3083    0.1525 C   0  0  0  0  0  0  0  0  0  0  0  0
    0.0658    2.1343    0.6044 C   0  0  0  0  0  0  0  0  0  0  0  0
    0.6903    0.9257   -0.0868 C   0  0  1  0  0  0  0  0  0  0  0  0
    2.1163    0.7009    0.4111 C   0  0  2  0  0  0  0  0  0  0  0  0
    3.1467    1.8185    0.2559 C   0  0  0  0  0  0  0  0  0  0  0  0
    2.9891    2.6263    0.9692 H   0  0  0  0  0  0  0  0  0  0  0  0
    3.1022    2.2398   -0.7479 H   0  0  0  0  0  0  0  0  0  0  0  0
    4.4867    1.1028    0.5045 C   0  0  0  0  0  0  0  0  0  0  0  0
    5.2283    1.3429   -0.2549 H   0  0  0  0  0  0  0  0  0  0  0  0
    4.9064    1.3694    1.4731 H   0  0  0  0  0  0  0  0  0  0  0  0
    4.1985   -0.4134    0.4432 C   0  0  2  0  0  0  0  0  0  0  0  0
    5.2463   -1.0570   -0.2390 O   0  0  0  0  0  0  0  0  0  0  0  0
    5.0297   -1.9914   -0.3257 H   0  0  0  0  0  0  0  0  0  0  0  0
    2.8118   -0.5055   -0.2371 C   0  0  1  0  0  0  0  0  0  0  0  0
    1.9950   -1.7515    0.0958 C   0  0  0  0  0  0  0  0  0  0  0  0
    2.4290   -2.6416   -0.3691 H   0  0  0  0  0  0  0  0  0  0  0  0
    0.5593   -1.5691   -0.4012 C   0  0  0  0  0  0  0  0  0  0  0  0
    0.5864   -1.4582   -1.4834 H   0  0  0  0  0  0  0  0  0  0  0  0
   -0.0093   -2.4729   -0.1790 H   0  0  0  0  0  0  0  0  0  0  0  0
   -0.1207   -0.3455    0.2324 C   0  0  2  0  0  0  0  0  0  0  0  0
   -0.0662   -0.4584    1.3199 H   0  0  0  0  0  0  0  0  0  0  0  0
   -1.6263   -0.2338   -0.1381 C   0  0  1  0  0  0  0  0  0  0  0  0
   -1.8128   -0.2473   -1.6612 C   0  0  0  0  0  0  0  0  0  0  0  0
   -1.3156    0.5987   -2.1269 H   0  0  0  0  0  0  0  0  0  0  0  0
   -2.8656   -0.2090   -1.9253 H   0  0  0  0  0  0  0  0  0  0  0  0
   -1.4096   -1.1594   -2.0908 H   0  0  0  0  0  0  0  0  0  0  0  0
    1.9921   -1.9096    1.1785 H   0  0  0  0  0  0  0  0  0  0  0  0
    3.0081   -0.3709   -1.7507 C   0  0  0  0  0  0  0  0  0  0  0  0
    3.8168    0.3187   -1.9703 H   0  0  0  0  0  0  0  0  0  0  0  0
    3.2748   -1.3364   -2.1768 H   0  0  0  0  0  0  0  0  0  0  0  0
    2.1105   -0.0187   -2.2490 H   0  0  0  0  0  0  0  0  0  0  0  0
    4.1222   -0.8227    1.4646 H   0  0  0  0  0  0  0  0  0  0  0  0
    2.0458    0.4791    1.4848 H   0  0  0  0  0  0  0  0  0  0  0  0
    0.6972    1.1098   -1.1631 H   0  0  0  0  0  0  0  0  0  0  0  0
    0.6377    3.0331    0.3694 H   0  0  0  0  0  0  0  0  0  0  0  0
    0.0981    1.9904    1.6879 H   0  0  0  0  0  0  0  0  0  0  0  0
   -1.3936    2.5094   -0.9200 H   0  0  0  0  0  0  0  0  0  0  0  0
   -1.8217    3.1698    0.6543 H   0  0  0  0  0  0  0  0  0  0  0  0
   -2.2192    0.9402    1.5508 H   0  0  0  0  0  0  0  0  0  0  0  0
   -4.5410   -1.9890    0.3956 H   0  0  0  0  0  0  0  0  0  0  0  0
   -4.1278   -0.7931    1.6298 H   0  0  0  0  0  0  0  0  0  0  0  0
  1  2  1  0
  1  3  1  0
  1  4  1  0
  1  5  1  0
  5  6  1  6
  5  7  1  0
  5 35  1  0
  7  8  1  0
  7 53  1  0
  7 54  1  0
  8  9  2  0
  8 10  1  0
 10 11  1  0
 10 12  1  0
 10 13  1  0
 13 14  1  0
 13 35  1  0
 13 52  1  1
 14 15  1  0
 14 50  1  0
 14 51  1  0
 15 16  1  0
 15 48  1  0
 15 49  1  0
 16 17  1  0
 16 33  1  0
 16 47  1  6
 17 18  1  0
 17 27  1  0
 17 46  1  1
 18 19  1  0
 18 20  1  0
 18 21  1  0
 21 22  1  0
 21 23  1  0
 21 24  1  0
 24 25  1  0
 24 27  1  0
 24 45  1  1
 25 26  1  0
 27 28  1  0
 27 41  1  6
 28 29  1  0
 28 30  1  0
 28 40  1  0
 30 31  1  0
 30 32  1  0
 30 33  1  0
 33 34  1  1
 33 35  1  0
 35 36  1  6
 36 37  1  0
 36 38  1  0
 36 39  1  0
 41 42  1  0
 41 43  1  0
 41 44  1  0
M  END
$$$$

     RDKit          3D

 54 57  0  0  0  0  0  0  0  0999 V2000
   -1.9340   -1.9801    1.7858 C   0  0  0  0  0  0  0  0  0  0  0  0
   -2.6354   -2.7343    2.1386 H   0  0  0  0  0  0  0  0  0  0  0  0
   -0.9592   -2.4509    1.7100 H   0  0  0  0  0  0  0  0  0  0  0  0
   -1.8834   -1.1940    2.5363 H   0  0  0  0  0  0  0  0  0  0  0  0
   -2.4307   -1.4356    0.4420 C   0  0  1  0  0  0  0  0  0  0  0  0
   -2.3696   -2.2528   -0.2834 H   0  0  0  0  0  0  0  0  0  0  0  0
   -3.9272   -1.0988    0.6324 C   0  0  0  0  0  0  0  0  0  0  0  0
   -4.4286    0.0357   -0.2166 C   0  0  0  0  0  0  0  0  0  0  0  0
   -5.3894   -0.0438   -0.9429 O   0  0  0  0  0  0  0  0  0  0  0  0
   -3.6472    1.3084   -0.0139 C   0  0  0  0  0  0  0  0  0  0  0  0
   -4.1833    1.8984    0.7355 H   0  0  0  0  0  0  0  0  0  0  0  0
   -3.6697    1.8874   -0.9382 H   0  0  0  0  0  0  0  0  0  0  0  0
   -2.2067    1.0659    0.4543 C   0  0  2  0  0  0  0  0  0  0  0  0
   -1.3743    2.3056    0.1273 C   0  0  0  0  0  0  0  0  0  0  0  0
    0.0666    2.1375    0.5791 C   0  0  0  0  0  0  0  0  0  0  0  0
    0.6949    0.9250   -0.1008 C   0  0  1  0  0  0  0  0  0  0  0  0
    2.1074    0.6857    0.4268 C   0  0  2  0  0  0  0  0  0  0  0  0
    3.1366    1.8186    0.3557 C   0  0  0  0  0  0  0  0  0  0  0  0
    2.9946    2.5367    1.1624 H   0  0  0  0  0  0  0  0  0  0  0  0
    3.0625    2.3576   -0.5874 H   0  0  0  0  0  0  0  0  0  0  0  0
    4.4913    1.0946    0.4734 C   0  0  0  0  0  0  0  0  0  0  0  0
    5.1389    1.3122   -0.3745 H   0  0  0  0  0  0  0  0  0  0  0  0
    5.0267    1.3701    1.3797 H   0  0  0  0  0  0  0  0  0  0  0  0
    4.1831   -0.4136    0.4583 C   0  0  2  0  0  0  0  0  0  0  0  0
    5.2369   -1.1061   -0.1620 O   0  0  0  0  0  0  0  0  0  0  0  0
    5.0172   -2.0431   -0.1845 H   0  0  0  0  0  0  0  0  0  0  0  0
    2.8144   -0.4883   -0.2631 C   0  0  1  0  0  0  0  0  0  0  0  0
    2.0016   -1.7524    0.0130 C   0  0  0  0  0  0  0  0  0  0  0  0
    2.4359   -2.6138   -0.5039 H   0  0  0  0  0  0  0  0  0  0  0  0
    0.5573   -1.5542   -0.4575 C   0  0  0  0  0  0  0  0  0  0  0  0
    0.5651   -1.4065   -1.5364 H   0  0  0  0  0  0  0  0  0  0  0  0
   -0.0087   -2.4632   -0.2559 H   0  0  0  0  0  0  0  0  0  0  0  0
   -0.1200   -0.3468    0.2069 C   0  0  2  0  0  0  0  0  0  0  0  0
   -0.0599   -0.4754    1.2916 H   0  0  0  0  0  0  0  0  0  0  0  0
   -1.6284   -0.2345   -0.1515 C   0  0  1  0  0  0  0  0  0  0  0  0
   -1.8310   -0.2461   -1.6719 C   0  0  0  0  0  0  0  0  0  0  0  0
   -1.3127    0.5845   -2.1436 H   0  0  0  0  0  0  0  0  0  0  0  0
   -2.8850   -0.1783   -1.9239 H   0  0  0  0  0  0  0  0  0  0  0  0
   -1.4595   -1.1703   -2.1062 H   0  0  0  0  0  0  0  0  0  0  0  0
    2.0115   -1.9670    1.0849 H   0  0  0  0  0  0  0  0  0  0  0  0
    3.0369   -0.2860   -1.7671 C   0  0  0  0  0  0  0  0  0  0  0  0
    2.8559    0.7408   -2.0686 H   0  0  0  0  0  0  0  0  0  0  0  0
    4.0690   -0.5285   -2.0124 H   0  0  0  0  0  0  0  0  0  0  0  0
    2.3937   -0.9313   -2.3589 H   0  0  0  0  0  0  0  0  0  0  0  0
    4.0596   -0.7843    1.4890 H   0  0  0  0  0  0  0  0  0  0  0  0
    2.0097    0.4134    1.4851 H   0  0  0  0  0  0  0  0  0  0  0  0
    0.7285    1.0969   -1.1791 H   0  0  0  0  0  0  0  0  0  0  0  0
    0.6362    3.0349    0.3356 H   0  0  0  0  0  0  0  0  0  0  0  0
    0.0979    2.0033    1.6636 H   0  0  0  0  0  0  0  0  0  0  0  0
   -1.3964    2.4960   -0.9472 H   0  0  0  0  0  0  0  0  0  0  0  0
   -1.8196    3.1740    0.6201 H   0  0  0  0  0  0  0  0  0  0  0  0
   -2.1994    0.9427    1.5434 H   0  0  0  0  0  0  0  0  0  0  0  0
   -4.5396   -1.9833    0.4576 H   0  0  0  0  0  0  0  0  0  0  0  0
   -4.0828   -0.7784    1.6670 H   0  0  0  0  0  0  0  0  0  0  0  0
  1  2  1  0
  1  3  1  0
  1  4  1  0
  1  5  1  0
  5  6  1  6
  5  7  1  0
  5 35  1  0
  7  8  1  0
  7 53  1  0
  7 54  1  0
  8  9  2  0
  8 10  1  0
 10 11  1  0
 10 12  1  0
 10 13  1  0
 13 14  1  0
 13 35  1  0
 13 52  1  1
 14 15  1  0
 14 50  1  0
 14 51  1  0
 15 16  1  0
 15 48  1  0
 15 49  1  0
 16 17  1  0
 16 33  1  0
 16 47  1  6
 17 18  1  0
 17 27  1  0
 17 46  1  1
 18 19  1  0
 18 20  1  0
 18 21  1  0
 21 22  1  0
 21 23  1  0
 21 24  1  0
 24 25  1  0
 24 27  1  0
 24 45  1  1
 25 26  1  0
 27 28  1  0
 27 41  1  6
 28 29  1  0
 28 30  1  0
 28 40  1  0
 30 31  1  0
 30 32  1  0
 30 33  1  0
 33 34  1  1
 33 35  1  0
 35 36  1  6
 36 37  1  0
 36 38  1  0
 36 39  1  0
 41 42  1  0
 41 43  1  0
 41 44  1  0
M  END
$$$$

     RDKit          3D

 54 57  0  0  0  0  0  0  0  0999 V2000
   -2.4207   -1.6010    1.9921 C   0  0  0  0  0  0  0  0  0  0  0  0
   -1.4111   -1.6488    2.3891 H   0  0  0  0  0  0  0  0  0  0  0  0
   -2.9501   -0.7862    2.4792 H   0  0  0  0  0  0  0  0  0  0  0  0
   -2.9219   -2.5297    2.2591 H   0  0  0  0  0  0  0  0  0  0  0  0
   -2.4228   -1.4481    0.4689 C   0  0  1  0  0  0  0  0  0  0  0  0
   -2.0005   -2.3692    0.0565 H   0  0  0  0  0  0  0  0  0  0  0  0
   -3.8718   -1.3523   -0.0372 C   0  0  0  0  0  0  0  0  0  0  0  0
   -4.3697    0.0352   -0.3579 C   0  0  0  0  0  0  0  0  0  0  0  0
   -5.3347    0.2056   -1.0669 O   0  0  0  0  0  0  0  0  0  0  0  0
   -3.6619    1.1987    0.2901 C   0  0  0  0  0  0  0  0  0  0  0  0
   -4.1811    1.3677    1.2380 H   0  0  0  0  0  0  0  0  0  0  0  0
   -3.8539    2.0792   -0.3279 H   0  0  0  0  0  0  0  0  0  0  0  0
   -2.1540    1.0311    0.5446 C   0  0  2  0  0  0  0  0  0  0  0  0
   -1.3878    2.2665    0.0734 C   0  0  0  0  0  0  0  0  0  0  0  0
    0.0770    2.1557    0.4763 C   0  0  0  0  0  0  0  0  0  0  0  0
    0.7112    0.8860   -0.0897 C   0  0  1  0  0  0  0  0  0  0  0  0
    2.1402    0.7166    0.4120 C   0  0  2  0  0  0  0  0  0  0  0  0
    3.1457    1.8470    0.1786 C   0  0  0  0  0  0  0  0  0  0  0  0
    3.0308    2.6475    0.9081 H   0  0  0  0  0  0  0  0  0  0  0  0
    3.0141    2.2788   -0.8133 H   0  0  0  0  0  0  0  0  0  0  0  0
    4.5179    1.1570    0.3072 C   0  0  0  0  0  0  0  0  0  0  0  0
    5.1379    1.3431   -0.5704 H   0  0  0  0  0  0  0  0  0  0  0  0
    5.0631    1.5101    1.1829 H   0  0  0  0  0  0  0  0  0  0  0  0
    4.2374   -0.3627    0.4093 C   0  0  2  0  0  0  0  0  0  0  0  0
    5.1833   -1.1603   -0.2609 O   0  0  0  0  0  0  0  0  0  0  0  0
    6.0505   -0.9908    0.1203 H   0  0  0  0  0  0  0  0  0  0  0  0
    2.8274   -0.5155   -0.1930 C   0  0  1  0  0  0  0  0  0  0  0  0
    2.0578   -1.7514    0.2627 C   0  0  0  0  0  0  0  0  0  0  0  0
    2.4968   -2.6513   -0.1698 H   0  0  0  0  0  0  0  0  0  0  0  0
    0.5843   -1.6516   -0.1435 C   0  0  0  0  0  0  0  0  0  0  0  0
    0.5048   -1.7232   -1.2268 H   0  0  0  0  0  0  0  0  0  0  0  0
    0.0658   -2.5125    0.2808 H   0  0  0  0  0  0  0  0  0  0  0  0
   -0.0911   -0.3603    0.3424 C   0  0  2  0  0  0  0  0  0  0  0  0
   -0.0593   -0.3680    1.4381 H   0  0  0  0  0  0  0  0  0  0  0  0
   -1.5851   -0.2608   -0.0752 C   0  0  1  0  0  0  0  0  0  0  0  0
   -1.7254   -0.2589   -1.6044 C   0  0  0  0  0  0  0  0  0  0  0  0
   -2.7045    0.1025   -1.9074 H   0  0  0  0  0  0  0  0  0  0  0  0
   -1.6067   -1.2661   -1.9972 H   0  0  0  0  0  0  0  0  0  0  0  0
   -0.9829    0.3759   -2.0753 H   0  0  0  0  0  0  0  0  0  0  0  0
    2.1270   -1.8361    1.3509 H   0  0  0  0  0  0  0  0  0  0  0  0
    2.9454   -0.4890   -1.7175 C   0  0  0  0  0  0  0  0  0  0  0  0
    1.9770   -0.5664   -2.1993 H   0  0  0  0  0  0  0  0  0  0  0  0
    3.4279    0.4210   -2.0587 H   0  0  0  0  0  0  0  0  0  0  0  0
    3.5576   -1.3309   -2.0300 H   0  0  0  0  0  0  0  0  0  0  0  0
    4.2008   -0.6575    1.4714 H   0  0  0  0  0  0  0  0  0  0  0  0
    2.0887    0.5508    1.4965 H   0  0  0  0  0  0  0  0  0  0  0  0
    0.7313    0.9683   -1.1778 H   0  0  0  0  0  0  0  0  0  0  0  0
    0.6253    3.0296    0.1204 H   0  0  0  0  0  0  0  0  0  0  0  0
    0.1509    2.1387    1.5668 H   0  0  0  0  0  0  0  0  0  0  0  0
   -1.4720    2.3740   -1.0086 H   0  0  0  0  0  0  0  0  0  0  0  0
   -1.8245    3.1575    0.5308 H   0  0  0  0  0  0  0  0  0  0  0  0
   -1.9878    0.9614    1.6238 H   0  0  0  0  0  0  0  0  0  0  0  0
   -4.0202   -1.9595   -0.9326 H   0  0  0  0  0  0  0  0  0  0  0  0
   -4.5531   -1.7552    0.7176 H   0  0  0  0  0  0  0  0  0  0  0  0
  1  2  1  0
  1  3  1  0
  1  4  1  0
  1  5  1  0
  5  6  1  6
  5  7  1  0
  5 35  1  0
  7  8  1  0
  7 53  1  0
  7 54  1  0
  8  9  2  0
  8 10  1  0
 10 11  1  0
 10 12  1  0
 10 13  1  0
 13 14  1  0
 13 35  1  0
 13 52  1  1
 14 15  1  0
 14 50  1  0
 14 51  1  0
 15 16  1  0
 15 48  1  0
 15 49  1  0
 16 17  1  0
 16 33  1  0
 16 47  1  6
 17 18  1  0
 17 27  1  0
 17 46  1  1
 18 19  1  0
 18 20  1  0
 18 21  1  0
 21 22  1  0
 21 23  1  0
 21 24  1  0
 24 25  1  0
 24 27  1  0
 24 45  1  1
 25 26  1  0
 27 28  1  0
 27 41  1  6
 28 29  1  0
 28 30  1  0
 28 40  1  0
 30 31  1  0
 30 32  1  0
 30 33  1  0
 33 34  1  1
 33 35  1  0
 35 36  1  6
 36 37  1  0
 36 38  1  0
 36 39  1  0
 41 42  1  0
 41 43  1  0
 41 44  1  0
M  END
$$$$
