
     RDKit          3D

 24 26  0  0  0  0  0  0  0  0999 V2000
    3.7638    1.2136    0.0025 C   0  0  0  0  0  0  0  0  0  0  0  0
    2.3830    1.2255    0.0018 C   0  0  0  0  0  0  0  0  0  0  0  0
    1.6924    0.0097   -0.0006 C   0  0  0  0  0  0  0  0  0  0  0  0
    2.4558   -1.1601   -0.0027 C   0  0  0  0  0  0  0  0  0  0  0  0
    3.7743   -1.1707   -0.0017 N   0  0  0  0  0  0  0  0  0  0  0  0
    4.4143   -0.0138    0.0010 C   0  0  0  0  0  0  0  0  0  0  0  0
    5.4941   -0.0795    0.0021 H   0  0  0  0  0  0  0  0  0  0  0  0
    1.9968   -2.1412   -0.0055 H   0  0  0  0  0  0  0  0  0  0  0  0
    0.2444    0.0139   -0.0007 C   0  0  0  0  0  0  0  0  0  0  0  0
   -0.4792    1.1040   -0.0018 N   0  0  0  0  0  0  0  0  0  0  0  0
   -1.7818    0.6961   -0.0010 C   0  0  0  0  0  0  0  0  0  0  0  0
   -2.9608    1.4366   -0.0015 C   0  0  0  0  0  0  0  0  0  0  0  0
   -4.1507    0.7422   -0.0004 C   0  0  0  0  0  0  0  0  0  0  0  0
   -4.1887   -0.6551    0.0013 C   0  0  0  0  0  0  0  0  0  0  0  0
   -3.0341   -1.4109    0.0020 C   0  0  0  0  0  0  0  0  0  0  0  0
   -1.8332   -0.7202    0.0008 C   0  0  0  0  0  0  0  0  0  0  0  0
   -0.5258   -1.1243    0.0008 N   0  0  0  0  0  0  0  0  0  0  0  0
   -0.1977   -2.0746    0.0028 H   0  0  0  0  0  0  0  0  0  0  0  0
   -3.0645   -2.4904    0.0033 H   0  0  0  0  0  0  0  0  0  0  0  0
   -5.1467   -1.1534    0.0022 H   0  0  0  0  0  0  0  0  0  0  0  0
   -5.0837    1.2863   -0.0009 H   0  0  0  0  0  0  0  0  0  0  0  0
   -2.9293    2.5141   -0.0028 H   0  0  0  0  0  0  0  0  0  0  0  0
    1.8153    2.1428    0.0031 H   0  0  0  0  0  0  0  0  0  0  0  0
    4.3278    2.1333    0.0044 H   0  0  0  0  0  0  0  0  0  0  0  0
  1  2  2  0
  1  6  1  0
  1 24  1  0
  2  3  1  0
  2 23  1  0
  3  4  2  0
  3  9  1  0
  4  5  1  0
  4  8  1  0
  5  6  2  0
  6  7  1  0
  9 10  2  0
  9 17  1  0
 10 11  1  0
 11 12  2  0
 11 16  1  0
 12 13  1  0
 12 22  1  0
 13 14  2  0
 13 21  1  0
 14 15  1  0
 14 20  1  0
 15 16  2  0
 15 19  1  0
 16 17  1  0
 17 18  1  0
M  END
$$$$

     RDKit          3D

 24 26  0  0  0  0  0  0  0  0999 V2000
    3.8211    1.1516    0.0000 C   0  0  0  0  0  0  0  0  0  0  0  0
    2.4397    1.2340    0.0000 C   0  0  0  0  0  0  0  0  0  0  0  0
    1.6928    0.0555    0.0000 C   0  0  0  0  0  0  0  0  0  0  0  0
    2.4012   -1.1537   -0.0000 C   0  0  0  0  0  0  0  0  0  0  0  0
    3.7144   -1.2301   -0.0000 N   0  0  0  0  0  0  0  0  0  0  0  0
    4.4104   -0.1039    0.0000 C   0  0  0  0  0  0  0  0  0  0  0  0
    5.4863   -0.2177   -0.0000 H   0  0  0  0  0  0  0  0  0  0  0  0
    1.8554   -2.0861   -0.0000 H   0  0  0  0  0  0  0  0  0  0  0  0
    0.2457    0.0251    0.0000 C   0  0  0  0  0  0  0  0  0  0  0  0
   -0.4600   -1.0759    0.0000 N   0  0  0  0  0  0  0  0  0  0  0  0
   -1.7691   -0.6902    0.0000 C   0  0  0  0  0  0  0  0  0  0  0  0
   -2.9352   -1.4507    0.0000 C   0  0  0  0  0  0  0  0  0  0  0  0
   -4.1369   -0.7768    0.0000 C   0  0  0  0  0  0  0  0  0  0  0  0
   -4.1989    0.6197   -0.0000 C   0  0  0  0  0  0  0  0  0  0  0  0
   -3.0574    1.3952   -0.0000 C   0  0  0  0  0  0  0  0  0  0  0  0
   -1.8450    0.7250   -0.0000 C   0  0  0  0  0  0  0  0  0  0  0  0
   -0.5446    1.1511   -0.0000 N   0  0  0  0  0  0  0  0  0  0  0  0
   -0.2355    2.1078   -0.0000 H   0  0  0  0  0  0  0  0  0  0  0  0
   -3.1069    2.4742   -0.0000 H   0  0  0  0  0  0  0  0  0  0  0  0
   -5.1653    1.1017   -0.0000 H   0  0  0  0  0  0  0  0  0  0  0  0
   -5.0604   -1.3366    0.0000 H   0  0  0  0  0  0  0  0  0  0  0  0
   -2.8846   -2.5273    0.0000 H   0  0  0  0  0  0  0  0  0  0  0  0
    1.9611    2.2038    0.0001 H   0  0  0  0  0  0  0  0  0  0  0  0
    4.4274    2.0444    0.0000 H   0  0  0  0  0  0  0  0  0  0  0  0
  1  2  2  0
  1  6  1  0
  1 24  1  0
  2  3  1  0
  2 23  1  0
  3  4  2  0
  3  9  1  0
  4  5  1  0
  4  8  1  0
  5  6  2  0
  6  7  1  0
  9 10  2  0
  9 17  1  0
 10 11  1  0
 11 12  2  0
 11 16  1  0
 12 13  1  0
 12 22  1  0
 13 14  2  0
 13 21  1  0
 14 15  1  0
 14 20  1  0
 15 16  2  0
 15 19  1  0
 16 17  1  0
 17 18  1  0
M  END
$$$$
