
     RDKit          3D

  8  7  0  0  0  0  0  0  0  0999 V2000
   -1.6539   -0.4654    0.0003 C   0  0  0  0  0  0  0  0  0  0  0  0
    0.1050   -0.1512    0.0001 S   0  0  2  0  0  0  0  0  0  0  0  0
    0.7050   -0.5091   -1.2327 O   0  0  0  0  0  0  0  0  0  0  0  0
    0.7051   -0.5080    1.2331 O   0  0  0  0  0  0  0  0  0  0  0  0
   -0.0045    1.4895   -0.0006 F   0  0  0  0  0  0  0  0  0  0  0  0
   -2.0647   -0.0185   -0.8942 H   0  0  0  0  0  0  0  0  0  0  0  0
   -2.0646   -0.0179    0.8946 H   0  0  0  0  0  0  0  0  0  0  0  0
   -1.8004   -1.5369    0.0007 H   0  0  0  0  0  0  0  0  0  0  0  0
  1  2  1  0
  1  6  1  0
  1  7  1  0
  1  8  1  0
  2  3  2  0
  2  4  2  0
  2  5  1  6
M  END
$$$$
