
     RDKit          3D

 36 41  0  0  0  0  0  0  0  0999 V2000
    2.2754    3.1034    0.0003 O   0  0  0  0  0  0  0  0  0  0  0  0
    1.1617    2.6406    0.0002 C   0  0  0  0  0  0  0  0  0  0  0  0
   -0.0000    3.3987   -0.0000 N   0  0  0  0  0  0  0  0  0  0  0  0
   -1.1617    2.6406   -0.0001 C   0  0  0  0  0  0  0  0  0  0  0  0
   -2.2754    3.1034   -0.0003 O   0  0  0  0  0  0  0  0  0  0  0  0
   -0.6992    1.2399    0.0000 C   0  0  0  0  0  0  0  0  0  0  0  0
   -1.4136    0.0422    0.0000 C   0  0  0  0  0  0  0  0  0  0  0  0
   -0.6943   -1.1842    0.0001 C   0  0  0  0  0  0  0  0  0  0  0  0
    0.6943   -1.1842    0.0001 C   0  0  0  0  0  0  0  0  0  0  0  0
    1.5868   -2.2243    0.0001 N   0  0  0  0  0  0  0  0  0  0  0  0
    2.8661   -1.7199   -0.0001 C   0  0  0  0  0  0  0  0  0  0  0  0
    4.0766   -2.3940   -0.0002 C   0  0  0  0  0  0  0  0  0  0  0  0
    5.2310   -1.6343   -0.0003 C   0  0  0  0  0  0  0  0  0  0  0  0
    5.1829   -0.2410   -0.0001 C   0  0  0  0  0  0  0  0  0  0  0  0
    3.9804    0.4367    0.0000 C   0  0  0  0  0  0  0  0  0  0  0  0
    2.8048   -0.3070    0.0000 C   0  0  0  0  0  0  0  0  0  0  0  0
    1.4136    0.0422    0.0001 C   0  0  0  0  0  0  0  0  0  0  0  0
    0.6992    1.2399    0.0001 C   0  0  0  0  0  0  0  0  0  0  0  0
    3.9376    1.5137    0.0003 H   0  0  0  0  0  0  0  0  0  0  0  0
    6.1081    0.3152    0.0000 H   0  0  0  0  0  0  0  0  0  0  0  0
    6.1902   -2.1307   -0.0003 H   0  0  0  0  0  0  0  0  0  0  0  0
    4.1153   -3.4735   -0.0003 H   0  0  0  0  0  0  0  0  0  0  0  0
    1.3558   -3.2025   -0.0003 H   0  0  0  0  0  0  0  0  0  0  0  0
   -1.5868   -2.2243    0.0001 N   0  0  0  0  0  0  0  0  0  0  0  0
   -2.8661   -1.7199    0.0001 C   0  0  0  0  0  0  0  0  0  0  0  0
   -4.0766   -2.3941    0.0002 C   0  0  0  0  0  0  0  0  0  0  0  0
   -5.2310   -1.6343   -0.0000 C   0  0  0  0  0  0  0  0  0  0  0  0
   -5.1829   -0.2410   -0.0002 C   0  0  0  0  0  0  0  0  0  0  0  0
   -3.9804    0.4367   -0.0002 C   0  0  0  0  0  0  0  0  0  0  0  0
   -2.8048   -0.3071   -0.0000 C   0  0  0  0  0  0  0  0  0  0  0  0
   -3.9376    1.5137   -0.0004 H   0  0  0  0  0  0  0  0  0  0  0  0
   -6.1081    0.3152   -0.0003 H   0  0  0  0  0  0  0  0  0  0  0  0
   -6.1902   -2.1307    0.0001 H   0  0  0  0  0  0  0  0  0  0  0  0
   -4.1153   -3.4735    0.0003 H   0  0  0  0  0  0  0  0  0  0  0  0
   -1.3558   -3.2025    0.0006 H   0  0  0  0  0  0  0  0  0  0  0  0
   -0.0000    4.4078   -0.0001 H   0  0  0  0  0  0  0  0  0  0  0  0
  1  2  2  0
  2  3  1  0
  2 18  1  0
  3  4  1  0
  3 36  1  0
  4  5  2  0
  4  6  1  0
  6  7  2  0
  6 18  1  0
  7  8  1  0
  7 30  1  0
  8  9  2  0
  8 24  1  0
  9 10  1  0
  9 17  1  0
 10 11  1  0
 10 23  1  0
 11 12  1  0
 11 16  2  0
 12 13  2  0
 12 22  1  0
 13 14  1  0
 13 21  1  0
 14 15  2  0
 14 20  1  0
 15 16  1  0
 15 19  1  0
 16 17  1  0
 17 18  2  0
 24 25  1  0
 24 35  1  0
 25 26  1  0
 25 30  2  0
 26 27  2  0
 26 34  1  0
 27 28  1  0
 27 33  1  0
 28 29  2  0
 28 32  1  0
 29 30  1  0
 29 31  1  0
M  END
$$$$
