
     RDKit          3D

 40 42  0  0  0  0  0  0  0  0999 V2000
    7.6462    0.6818   -0.1022 C   0  0  0  0  0  0  0  0  0  0  0  0
    6.3092    0.0013    0.1160 C   0  0  0  0  0  0  0  0  0  0  0  0
    6.2003   -1.1326    0.5183 O   0  0  0  0  0  0  0  0  0  0  0  0
    5.2599    0.8204   -0.1970 N   0  0  0  0  0  0  0  0  0  0  0  0
    3.8890    0.5651   -0.1310 C   0  0  0  0  0  0  0  0  0  0  0  0
    3.3624   -0.6438    0.3160 C   0  0  0  0  0  0  0  0  0  0  0  0
    1.9951   -0.8322    0.3486 C   0  0  0  0  0  0  0  0  0  0  0  0
    1.1184    0.1721   -0.0575 C   0  0  0  0  0  0  0  0  0  0  0  0
    1.6549    1.3868   -0.4875 C   0  0  0  0  0  0  0  0  0  0  0  0
    3.0171    1.5802   -0.5283 C   0  0  0  0  0  0  0  0  0  0  0  0
    3.4181    2.5248   -0.8706 H   0  0  0  0  0  0  0  0  0  0  0  0
    0.9776    2.1693   -0.7907 H   0  0  0  0  0  0  0  0  0  0  0  0
   -0.3383    0.0047   -0.0331 C   0  0  0  0  0  0  0  0  0  0  0  0
   -1.0597    1.1022    0.0189 N   0  0  0  0  0  0  0  0  0  0  0  0
   -2.3984    1.0221    0.0512 C   0  0  0  0  0  0  0  0  0  0  0  0
   -3.1246    2.2295    0.1251 C   0  0  0  0  0  0  0  0  0  0  0  0
   -4.4929    2.2315    0.1708 C   0  0  0  0  0  0  0  0  0  0  0  0
   -5.1771    0.9985    0.1452 C   0  0  0  0  0  0  0  0  0  0  0  0
   -4.5085   -0.1910    0.0716 C   0  0  0  0  0  0  0  0  0  0  0  0
   -3.1019   -0.2176    0.0148 C   0  0  0  0  0  0  0  0  0  0  0  0
   -2.3070   -1.3936   -0.0689 C   0  0  0  0  0  0  0  0  0  0  0  0
   -0.9362   -1.2750   -0.0868 C   0  0  0  0  0  0  0  0  0  0  0  0
   -0.3248   -2.1574   -0.1787 H   0  0  0  0  0  0  0  0  0  0  0  0
   -2.9112   -2.7455   -0.1628 C   0  0  0  0  0  0  0  0  0  0  0  0
   -4.0235   -3.0080   -0.5466 O   0  0  0  0  0  0  0  0  0  0  0  0
   -2.0610   -3.7096    0.2287 O   0  0  0  0  0  0  0  0  0  0  0  0
   -2.4878   -4.5763    0.1402 H   0  0  0  0  0  0  0  0  0  0  0  0
   -5.0526   -1.1211    0.0464 H   0  0  0  0  0  0  0  0  0  0  0  0
   -6.2570    1.0045    0.1863 H   0  0  0  0  0  0  0  0  0  0  0  0
   -5.2782    3.5033    0.2510 C   0  0  0  0  0  0  0  0  0  0  0  0
   -5.9444    3.5889   -0.6066 H   0  0  0  0  0  0  0  0  0  0  0  0
   -5.8934    3.5106    1.1500 H   0  0  0  0  0  0  0  0  0  0  0  0
   -4.6200    4.3677    0.2705 H   0  0  0  0  0  0  0  0  0  0  0  0
   -2.5591    3.1485    0.1504 H   0  0  0  0  0  0  0  0  0  0  0  0
    1.6133   -1.7705    0.7208 H   0  0  0  0  0  0  0  0  0  0  0  0
    4.0284   -1.4267    0.6370 H   0  0  0  0  0  0  0  0  0  0  0  0
    5.4935    1.7472   -0.5272 H   0  0  0  0  0  0  0  0  0  0  0  0
    8.4429   -0.0072    0.1619 H   0  0  0  0  0  0  0  0  0  0  0  0
    7.7555    0.9713   -1.1454 H   0  0  0  0  0  0  0  0  0  0  0  0
    7.7220    1.5713    0.5200 H   0  0  0  0  0  0  0  0  0  0  0  0
  1  2  1  0
  1 38  1  0
  1 39  1  0
  1 40  1  0
  2  3  2  0
  2  4  1  0
  4  5  1  0
  4 37  1  0
  5  6  2  0
  5 10  1  0
  6  7  1  0
  6 36  1  0
  7  8  2  0
  7 35  1  0
  8  9  1  0
  8 13  1  0
  9 10  2  0
  9 12  1  0
 10 11  1  0
 13 14  2  0
 13 22  1  0
 14 15  1  0
 15 16  2  0
 15 20  1  0
 16 17  1  0
 16 34  1  0
 17 18  2  0
 17 30  1  0
 18 19  1  0
 18 29  1  0
 19 20  2  0
 19 28  1  0
 20 21  1  0
 21 22  2  0
 21 24  1  0
 22 23  1  0
 24 25  2  0
 24 26  1  0
 26 27  1  0
 30 31  1  0
 30 32  1  0
 30 33  1  0
M  END
$$$$

     RDKit          3D

 40 42  0  0  0  0  0  0  0  0999 V2000
   -7.6489   -0.7268    0.0109 C   0  0  0  0  0  0  0  0  0  0  0  0
   -6.3213    0.0048    0.0121 C   0  0  0  0  0  0  0  0  0  0  0  0
   -6.2277    1.2091    0.0134 O   0  0  0  0  0  0  0  0  0  0  0  0
   -5.2604   -0.8582    0.0107 N   0  0  0  0  0  0  0  0  0  0  0  0
   -3.8933   -0.5777    0.0089 C   0  0  0  0  0  0  0  0  0  0  0  0
   -3.3823    0.7171    0.0082 C   0  0  0  0  0  0  0  0  0  0  0  0
   -2.0173    0.9243    0.0059 C   0  0  0  0  0  0  0  0  0  0  0  0
   -1.1211   -0.1441    0.0051 C   0  0  0  0  0  0  0  0  0  0  0  0
   -1.6465   -1.4395    0.0054 C   0  0  0  0  0  0  0  0  0  0  0  0
   -3.0051   -1.6547    0.0072 C   0  0  0  0  0  0  0  0  0  0  0  0
   -3.3913   -2.6653    0.0072 H   0  0  0  0  0  0  0  0  0  0  0  0
   -0.9578   -2.2689    0.0042 H   0  0  0  0  0  0  0  0  0  0  0  0
    0.3368    0.0234    0.0030 C   0  0  0  0  0  0  0  0  0  0  0  0
    1.0531   -1.0807   -0.0004 N   0  0  0  0  0  0  0  0  0  0  0  0
    2.3917   -1.0179   -0.0061 C   0  0  0  0  0  0  0  0  0  0  0  0
    3.1037   -2.2365   -0.0163 C   0  0  0  0  0  0  0  0  0  0  0  0
    4.4724   -2.2570   -0.0258 C   0  0  0  0  0  0  0  0  0  0  0  0
    5.1721   -1.0323   -0.0296 C   0  0  0  0  0  0  0  0  0  0  0  0
    4.5177    0.1674   -0.0192 C   0  0  0  0  0  0  0  0  0  0  0  0
    3.1107    0.2132    0.0000 C   0  0  0  0  0  0  0  0  0  0  0  0
    2.3261    1.3987    0.0092 C   0  0  0  0  0  0  0  0  0  0  0  0
    0.9538    1.2958    0.0069 C   0  0  0  0  0  0  0  0  0  0  0  0
    0.3617    2.1949    0.0192 H   0  0  0  0  0  0  0  0  0  0  0  0
    2.9422    2.7483    0.0397 C   0  0  0  0  0  0  0  0  0  0  0  0
    4.0573    3.0186    0.4101 O   0  0  0  0  0  0  0  0  0  0  0  0
    2.1012    3.7027   -0.3942 O   0  0  0  0  0  0  0  0  0  0  0  0
    2.5383    4.5674   -0.3463 H   0  0  0  0  0  0  0  0  0  0  0  0
    5.0733    1.0910   -0.0155 H   0  0  0  0  0  0  0  0  0  0  0  0
    6.2524   -1.0532   -0.0414 H   0  0  0  0  0  0  0  0  0  0  0  0
    5.2428   -3.5404   -0.0378 C   0  0  0  0  0  0  0  0  0  0  0  0
    4.5747   -4.3968   -0.0050 H   0  0  0  0  0  0  0  0  0  0  0  0
    5.8515   -3.6056   -0.9391 H   0  0  0  0  0  0  0  0  0  0  0  0
    5.9140   -3.5853    0.8190 H   0  0  0  0  0  0  0  0  0  0  0  0
    2.5276   -3.1492   -0.0188 H   0  0  0  0  0  0  0  0  0  0  0  0
   -1.6627    1.9427    0.0036 H   0  0  0  0  0  0  0  0  0  0  0  0
   -4.0591    1.5547    0.0090 H   0  0  0  0  0  0  0  0  0  0  0  0
   -5.4810   -1.8452    0.0098 H   0  0  0  0  0  0  0  0  0  0  0  0
   -8.4553    0.0004    0.0213 H   0  0  0  0  0  0  0  0  0  0  0  0
   -7.7368   -1.3446   -0.8806 H   0  0  0  0  0  0  0  0  0  0  0  0
   -7.7299   -1.3631    0.8899 H   0  0  0  0  0  0  0  0  0  0  0  0
  1  2  1  0
  1 38  1  0
  1 39  1  0
  1 40  1  0
  2  3  2  0
  2  4  1  0
  4  5  1  0
  4 37  1  0
  5  6  2  0
  5 10  1  0
  6  7  1  0
  6 36  1  0
  7  8  2  0
  7 35  1  0
  8  9  1  0
  8 13  1  0
  9 10  2  0
  9 12  1  0
 10 11  1  0
 13 14  2  0
 13 22  1  0
 14 15  1  0
 15 16  2  0
 15 20  1  0
 16 17  1  0
 16 34  1  0
 17 18  2  0
 17 30  1  0
 18 19  1  0
 18 29  1  0
 19 20  2  0
 19 28  1  0
 20 21  1  0
 21 22  2  0
 21 24  1  0
 22 23  1  0
 24 25  2  0
 24 26  1  0
 26 27  1  0
 30 31  1  0
 30 32  1  0
 30 33  1  0
M  END
$$$$

     RDKit          3D

 40 42  0  0  0  0  0  0  0  0999 V2000
   -7.6672   -0.0847    0.0504 C   0  0  0  0  0  0  0  0  0  0  0  0
   -6.2494   -0.5784   -0.1604 C   0  0  0  0  0  0  0  0  0  0  0  0
   -5.9866   -1.6754   -0.5919 O   0  0  0  0  0  0  0  0  0  0  0  0
   -5.3216    0.3622    0.1933 N   0  0  0  0  0  0  0  0  0  0  0  0
   -3.9281    0.2904    0.1464 C   0  0  0  0  0  0  0  0  0  0  0  0
   -3.2058    1.4094    0.5610 C   0  0  0  0  0  0  0  0  0  0  0  0
   -1.8273    1.4082    0.5341 C   0  0  0  0  0  0  0  0  0  0  0  0
   -1.1294    0.2843    0.0948 C   0  0  0  0  0  0  0  0  0  0  0  0
   -1.8594   -0.8364   -0.3025 C   0  0  0  0  0  0  0  0  0  0  0  0
   -3.2378   -0.8404   -0.2851 C   0  0  0  0  0  0  0  0  0  0  0  0
   -3.7878   -1.7104   -0.6016 H   0  0  0  0  0  0  0  0  0  0  0  0
   -1.3172   -1.7087   -0.6310 H   0  0  0  0  0  0  0  0  0  0  0  0
    0.3360    0.2384    0.0549 C   0  0  0  0  0  0  0  0  0  0  0  0
    0.8922   -0.9514    0.0962 N   0  0  0  0  0  0  0  0  0  0  0  0
    2.2280   -1.0673    0.0722 C   0  0  0  0  0  0  0  0  0  0  0  0
    2.7728   -2.3673    0.1354 C   0  0  0  0  0  0  0  0  0  0  0  0
    4.1269   -2.5687    0.1267 C   0  0  0  0  0  0  0  0  0  0  0  0
    4.9817   -1.4490    0.0559 C   0  0  0  0  0  0  0  0  0  0  0  0
    4.4912   -0.1752   -0.0097 C   0  0  0  0  0  0  0  0  0  0  0  0
    3.1024    0.0562   -0.0119 C   0  0  0  0  0  0  0  0  0  0  0  0
    2.4839    1.3346   -0.0841 C   0  0  0  0  0  0  0  0  0  0  0  0
    1.1106    1.4164   -0.0458 C   0  0  0  0  0  0  0  0  0  0  0  0
    0.6308    2.3776   -0.1303 H   0  0  0  0  0  0  0  0  0  0  0  0
    3.2730    2.5824   -0.2241 C   0  0  0  0  0  0  0  0  0  0  0  0
    4.3978    2.6767   -0.6477 O   0  0  0  0  0  0  0  0  0  0  0  0
    2.5850    3.6674    0.1741 O   0  0  0  0  0  0  0  0  0  0  0  0
    3.1319    4.4594    0.0536 H   0  0  0  0  0  0  0  0  0  0  0  0
    5.1639    0.6649   -0.0703 H   0  0  0  0  0  0  0  0  0  0  0  0
    6.0500   -1.6122    0.0547 H   0  0  0  0  0  0  0  0  0  0  0  0
    4.7211   -3.9408    0.1941 C   0  0  0  0  0  0  0  0  0  0  0  0
    5.3290   -4.1312   -0.6897 H   0  0  0  0  0  0  0  0  0  0  0  0
    5.3678   -4.0296    1.0662 H   0  0  0  0  0  0  0  0  0  0  0  0
    3.9452   -4.6991    0.2549 H   0  0  0  0  0  0  0  0  0  0  0  0
    2.0804   -3.1928    0.1966 H   0  0  0  0  0  0  0  0  0  0  0  0
   -1.2967    2.2813    0.8827 H   0  0  0  0  0  0  0  0  0  0  0  0
   -3.7343    2.2862    0.9112 H   0  0  0  0  0  0  0  0  0  0  0  0
   -5.6809    1.2426    0.5374 H   0  0  0  0  0  0  0  0  0  0  0  0
   -7.8505    0.8039   -0.5504 H   0  0  0  0  0  0  0  0  0  0  0  0
   -8.3625   -0.8645   -0.2453 H   0  0  0  0  0  0  0  0  0  0  0  0
   -7.8288    0.1592    1.0985 H   0  0  0  0  0  0  0  0  0  0  0  0
  1  2  1  0
  1 38  1  0
  1 39  1  0
  1 40  1  0
  2  3  2  0
  2  4  1  0
  4  5  1  0
  4 37  1  0
  5  6  2  0
  5 10  1  0
  6  7  1  0
  6 36  1  0
  7  8  2  0
  7 35  1  0
  8  9  1  0
  8 13  1  0
  9 10  2  0
  9 12  1  0
 10 11  1  0
 13 14  2  0
 13 22  1  0
 14 15  1  0
 15 16  2  0
 15 20  1  0
 16 17  1  0
 16 34  1  0
 17 18  2  0
 17 30  1  0
 18 19  1  0
 18 29  1  0
 19 20  2  0
 19 28  1  0
 20 21  1  0
 21 22  2  0
 21 24  1  0
 22 23  1  0
 24 25  2  0
 24 26  1  0
 26 27  1  0
 30 31  1  0
 30 32  1  0
 30 33  1  0
M  END
$$$$

     RDKit          3D

 40 42  0  0  0  0  0  0  0  0999 V2000
    7.6653    0.0818   -0.0657 C   0  0  0  0  0  0  0  0  0  0  0  0
    6.2472    0.5754    0.1438 C   0  0  0  0  0  0  0  0  0  0  0  0
    5.9838    1.6730    0.5734 O   0  0  0  0  0  0  0  0  0  0  0  0
    5.3199   -0.3653   -0.2109 N   0  0  0  0  0  0  0  0  0  0  0  0
    3.9264   -0.2933   -0.1657 C   0  0  0  0  0  0  0  0  0  0  0  0
    3.2356    0.8368    0.2666 C   0  0  0  0  0  0  0  0  0  0  0  0
    1.8573    0.8319    0.2846 C   0  0  0  0  0  0  0  0  0  0  0  0
    1.1272   -0.2886   -0.1138 C   0  0  0  0  0  0  0  0  0  0  0  0
    1.8259   -1.4115   -0.5541 C   0  0  0  0  0  0  0  0  0  0  0  0
    3.2044   -1.4121   -0.5813 C   0  0  0  0  0  0  0  0  0  0  0  0
    3.7331   -2.2887   -0.9316 H   0  0  0  0  0  0  0  0  0  0  0  0
    1.2969   -2.2854   -0.9029 H   0  0  0  0  0  0  0  0  0  0  0  0
   -0.3381   -0.2414   -0.0699 C   0  0  0  0  0  0  0  0  0  0  0  0
   -0.8921    0.9491   -0.1022 N   0  0  0  0  0  0  0  0  0  0  0  0
   -2.2281    1.0678   -0.0629 C   0  0  0  0  0  0  0  0  0  0  0  0
   -2.7701    2.3678   -0.1001 C   0  0  0  0  0  0  0  0  0  0  0  0
   -4.1255    2.5744   -0.0649 C   0  0  0  0  0  0  0  0  0  0  0  0
   -4.9797    1.4582    0.0128 C   0  0  0  0  0  0  0  0  0  0  0  0
   -4.4907    0.1808    0.0510 C   0  0  0  0  0  0  0  0  0  0  0  0
   -3.1047   -0.0556    0.0093 C   0  0  0  0  0  0  0  0  0  0  0  0
   -2.4876   -1.3365    0.0602 C   0  0  0  0  0  0  0  0  0  0  0  0
   -1.1147   -1.4194    0.0238 C   0  0  0  0  0  0  0  0  0  0  0  0
   -0.6369   -2.3834    0.0823 H   0  0  0  0  0  0  0  0  0  0  0  0
   -3.2797   -2.5881    0.1406 C   0  0  0  0  0  0  0  0  0  0  0  0
   -4.4301   -2.7314   -0.1906 O   0  0  0  0  0  0  0  0  0  0  0  0
   -2.5625   -3.6157    0.6284 O   0  0  0  0  0  0  0  0  0  0  0  0
   -3.1153   -4.4125    0.6542 H   0  0  0  0  0  0  0  0  0  0  0  0
   -5.1656   -0.6579    0.1043 H   0  0  0  0  0  0  0  0  0  0  0  0
   -6.0478    1.6195    0.0433 H   0  0  0  0  0  0  0  0  0  0  0  0
   -4.6888    3.9621   -0.1008 C   0  0  0  0  0  0  0  0  0  0  0  0
   -4.3769    4.5178    0.7828 H   0  0  0  0  0  0  0  0  0  0  0  0
   -4.3216    4.4977   -0.9747 H   0  0  0  0  0  0  0  0  0  0  0  0
   -5.7751    3.9434   -0.1329 H   0  0  0  0  0  0  0  0  0  0  0  0
   -2.0790    3.1949   -0.1565 H   0  0  0  0  0  0  0  0  0  0  0  0
    1.3147    1.7036    0.6140 H   0  0  0  0  0  0  0  0  0  0  0  0
    3.7852    1.7067    0.5841 H   0  0  0  0  0  0  0  0  0  0  0  0
    5.6796   -1.2457   -0.5544 H   0  0  0  0  0  0  0  0  0  0  0  0
    8.3603    0.8600    0.2352 H   0  0  0  0  0  0  0  0  0  0  0  0
    7.8465   -0.8096    0.5313 H   0  0  0  0  0  0  0  0  0  0  0  0
    7.8292   -0.1571   -1.1146 H   0  0  0  0  0  0  0  0  0  0  0  0
  1  2  1  0
  1 38  1  0
  1 39  1  0
  1 40  1  0
  2  3  2  0
  2  4  1  0
  4  5  1  0
  4 37  1  0
  5  6  2  0
  5 10  1  0
  6  7  1  0
  6 36  1  0
  7  8  2  0
  7 35  1  0
  8  9  1  0
  8 13  1  0
  9 10  2  0
  9 12  1  0
 10 11  1  0
 13 14  2  0
 13 22  1  0
 14 15  1  0
 15 16  2  0
 15 20  1  0
 16 17  1  0
 16 34  1  0
 17 18  2  0
 17 30  1  0
 18 19  1  0
 18 29  1  0
 19 20  2  0
 19 28  1  0
 20 21  1  0
 21 22  2  0
 21 24  1  0
 22 23  1  0
 24 25  2  0
 24 26  1  0
 26 27  1  0
 30 31  1  0
 30 32  1  0
 30 33  1  0
M  END
$$$$

     RDKit          3D

 40 42  0  0  0  0  0  0  0  0999 V2000
    7.6627    0.6559    0.0614 C   0  0  0  0  0  0  0  0  0  0  0  0
    6.3069    0.0123   -0.1494 C   0  0  0  0  0  0  0  0  0  0  0  0
    6.1881   -1.1125   -0.5777 O   0  0  0  0  0  0  0  0  0  0  0  0
    5.2603    0.8215    0.1921 N   0  0  0  0  0  0  0  0  0  0  0  0
    3.8891    0.5625    0.1267 C   0  0  0  0  0  0  0  0  0  0  0  0
    3.3619   -0.6393   -0.3378 C   0  0  0  0  0  0  0  0  0  0  0  0
    1.9945   -0.8283   -0.3687 C   0  0  0  0  0  0  0  0  0  0  0  0
    1.1182    0.1686    0.0555 C   0  0  0  0  0  0  0  0  0  0  0  0
    1.6553    1.3762    0.5045 C   0  0  0  0  0  0  0  0  0  0  0  0
    3.0175    1.5697    0.5444 C   0  0  0  0  0  0  0  0  0  0  0  0
    3.4184    2.5088    0.9017 H   0  0  0  0  0  0  0  0  0  0  0  0
    0.9786    2.1532    0.8227 H   0  0  0  0  0  0  0  0  0  0  0  0
   -0.3388    0.0023    0.0315 C   0  0  0  0  0  0  0  0  0  0  0  0
   -1.0587    1.1009   -0.0149 N   0  0  0  0  0  0  0  0  0  0  0  0
   -2.3977    1.0226   -0.0401 C   0  0  0  0  0  0  0  0  0  0  0  0
   -3.1224    2.2320   -0.0940 C   0  0  0  0  0  0  0  0  0  0  0  0
   -4.4911    2.2369   -0.1239 C   0  0  0  0  0  0  0  0  0  0  0  0
   -5.1773    1.0051   -0.0957 C   0  0  0  0  0  0  0  0  0  0  0  0
   -4.5100   -0.1863   -0.0430 C   0  0  0  0  0  0  0  0  0  0  0  0
   -3.1024   -0.2168   -0.0195 C   0  0  0  0  0  0  0  0  0  0  0  0
   -2.3086   -1.3946    0.0502 C   0  0  0  0  0  0  0  0  0  0  0  0
   -0.9378   -1.2770    0.0770 C   0  0  0  0  0  0  0  0  0  0  0  0
   -0.3265   -2.1614    0.1484 H   0  0  0  0  0  0  0  0  0  0  0  0
   -2.9126   -2.7496    0.0837 C   0  0  0  0  0  0  0  0  0  0  0  0
   -4.0110   -3.0543   -0.3090 O   0  0  0  0  0  0  0  0  0  0  0  0
   -2.0794   -3.6653    0.6062 O   0  0  0  0  0  0  0  0  0  0  0  0
   -2.5058   -4.5365    0.5968 H   0  0  0  0  0  0  0  0  0  0  0  0
   -5.0553   -1.1159   -0.0288 H   0  0  0  0  0  0  0  0  0  0  0  0
   -6.2577    1.0135   -0.1162 H   0  0  0  0  0  0  0  0  0  0  0  0
   -5.2749    3.5108   -0.1835 C   0  0  0  0  0  0  0  0  0  0  0  0
   -4.6153    4.3741   -0.2035 H   0  0  0  0  0  0  0  0  0  0  0  0
   -5.9003    3.5265   -1.0754 H   0  0  0  0  0  0  0  0  0  0  0  0
   -5.9312    3.5907    0.6824 H   0  0  0  0  0  0  0  0  0  0  0  0
   -2.5555    3.1503   -0.1113 H   0  0  0  0  0  0  0  0  0  0  0  0
    1.6127   -1.7612   -0.7541 H   0  0  0  0  0  0  0  0  0  0  0  0
    4.0272   -1.4164   -0.6740 H   0  0  0  0  0  0  0  0  0  0  0  0
    5.4865    1.7424    0.5422 H   0  0  0  0  0  0  0  0  0  0  0  0
    7.5985    1.6800    0.4171 H   0  0  0  0  0  0  0  0  0  0  0  0
    8.2225    0.0581    0.7777 H   0  0  0  0  0  0  0  0  0  0  0  0
    8.2083    0.6319   -0.8795 H   0  0  0  0  0  0  0  0  0  0  0  0
  1  2  1  0
  1 38  1  0
  1 39  1  0
  1 40  1  0
  2  3  2  0
  2  4  1  0
  4  5  1  0
  4 37  1  0
  5  6  2  0
  5 10  1  0
  6  7  1  0
  6 36  1  0
  7  8  2  0
  7 35  1  0
  8  9  1  0
  8 13  1  0
  9 10  2  0
  9 12  1  0
 10 11  1  0
 13 14  2  0
 13 22  1  0
 14 15  1  0
 15 16  2  0
 15 20  1  0
 16 17  1  0
 16 34  1  0
 17 18  2  0
 17 30  1  0
 18 19  1  0
 18 29  1  0
 19 20  2  0
 19 28  1  0
 20 21  1  0
 21 22  2  0
 21 24  1  0
 22 23  1  0
 24 25  2  0
 24 26  1  0
 26 27  1  0
 30 31  1  0
 30 32  1  0
 30 33  1  0
M  END
$$$$

     RDKit          3D

 40 42  0  0  0  0  0  0  0  0999 V2000
    7.6590    0.6651    0.1049 C   0  0  0  0  0  0  0  0  0  0  0  0
    6.3220   -0.0138   -0.1186 C   0  0  0  0  0  0  0  0  0  0  0  0
    6.2128   -1.1423   -0.5351 O   0  0  0  0  0  0  0  0  0  0  0  0
    5.2729    0.8009    0.2069 N   0  0  0  0  0  0  0  0  0  0  0  0
    3.9020    0.5470    0.1390 C   0  0  0  0  0  0  0  0  0  0  0  0
    3.0313    1.5592    0.5470 C   0  0  0  0  0  0  0  0  0  0  0  0
    1.6690    1.3681    0.5036 C   0  0  0  0  0  0  0  0  0  0  0  0
    1.1311    0.1585    0.0605 C   0  0  0  0  0  0  0  0  0  0  0  0
    2.0064   -0.8437   -0.3544 C   0  0  0  0  0  0  0  0  0  0  0  0
    3.3739   -0.6570   -0.3194 C   0  0  0  0  0  0  0  0  0  0  0  0
    4.0389   -1.4379   -0.6474 H   0  0  0  0  0  0  0  0  0  0  0  0
    1.6234   -1.7781   -0.7344 H   0  0  0  0  0  0  0  0  0  0  0  0
   -0.3255   -0.0050    0.0308 C   0  0  0  0  0  0  0  0  0  0  0  0
   -1.0459    1.0943    0.0096 N   0  0  0  0  0  0  0  0  0  0  0  0
   -2.3842    1.0181   -0.0394 C   0  0  0  0  0  0  0  0  0  0  0  0
   -3.1023    2.2313   -0.0978 C   0  0  0  0  0  0  0  0  0  0  0  0
   -4.4689    2.2446   -0.1763 C   0  0  0  0  0  0  0  0  0  0  0  0
   -5.1592    1.0157   -0.2031 C   0  0  0  0  0  0  0  0  0  0  0  0
   -4.4985   -0.1788   -0.1395 C   0  0  0  0  0  0  0  0  0  0  0  0
   -3.0946   -0.2190   -0.0411 C   0  0  0  0  0  0  0  0  0  0  0  0
   -2.3020   -1.3953    0.0338 C   0  0  0  0  0  0  0  0  0  0  0  0
   -0.9309   -1.2817    0.0488 C   0  0  0  0  0  0  0  0  0  0  0  0
   -0.3348   -2.1781    0.1120 H   0  0  0  0  0  0  0  0  0  0  0  0
   -2.8373   -2.7795    0.1059 C   0  0  0  0  0  0  0  0  0  0  0  0
   -2.2432   -3.7443   -0.3064 O   0  0  0  0  0  0  0  0  0  0  0  0
   -4.0266   -2.8924    0.7141 O   0  0  0  0  0  0  0  0  0  0  0  0
   -4.2845   -3.8274    0.7545 H   0  0  0  0  0  0  0  0  0  0  0  0
   -5.0552   -1.1014   -0.1635 H   0  0  0  0  0  0  0  0  0  0  0  0
   -6.2372    1.0283   -0.2787 H   0  0  0  0  0  0  0  0  0  0  0  0
   -5.2445    3.5230   -0.2435 C   0  0  0  0  0  0  0  0  0  0  0  0
   -4.5810    4.3831   -0.2192 H   0  0  0  0  0  0  0  0  0  0  0  0
   -5.8326    3.5598   -1.1598 H   0  0  0  0  0  0  0  0  0  0  0  0
   -5.9353    3.5892    0.5963 H   0  0  0  0  0  0  0  0  0  0  0  0
   -2.5303    3.1465   -0.0900 H   0  0  0  0  0  0  0  0  0  0  0  0
    0.9927    2.1484    0.8146 H   0  0  0  0  0  0  0  0  0  0  0  0
    3.4336    2.4996    0.8992 H   0  0  0  0  0  0  0  0  0  0  0  0
    5.5071    1.7238    0.5476 H   0  0  0  0  0  0  0  0  0  0  0  0
    8.4556   -0.0204   -0.1685 H   0  0  0  0  0  0  0  0  0  0  0  0
    7.7331    1.5615   -0.5075 H   0  0  0  0  0  0  0  0  0  0  0  0
    7.7701    0.9428    1.1511 H   0  0  0  0  0  0  0  0  0  0  0  0
  1  2  1  0
  1 38  1  0
  1 39  1  0
  1 40  1  0
  2  3  2  0
  2  4  1  0
  4  5  1  0
  4 37  1  0
  5  6  2  0
  5 10  1  0
  6  7  1  0
  6 36  1  0
  7  8  2  0
  7 35  1  0
  8  9  1  0
  8 13  1  0
  9 10  2  0
  9 12  1  0
 10 11  1  0
 13 14  2  0
 13 22  1  0
 14 15  1  0
 15 16  2  0
 15 20  1  0
 16 17  1  0
 16 34  1  0
 17 18  2  0
 17 30  1  0
 18 19  1  0
 18 29  1  0
 19 20  2  0
 19 28  1  0
 20 21  1  0
 21 22  2  0
 21 24  1  0
 22 23  1  0
 24 25  2  0
 24 26  1  0
 26 27  1  0
 30 31  1  0
 30 32  1  0
 30 33  1  0
M  END
$$$$

     RDKit          3D

 40 42  0  0  0  0  0  0  0  0999 V2000
   -7.6777   -0.0680    0.0362 C   0  0  0  0  0  0  0  0  0  0  0  0
   -6.2601   -0.5634   -0.1727 C   0  0  0  0  0  0  0  0  0  0  0  0
   -5.9982   -1.6576   -0.6119 O   0  0  0  0  0  0  0  0  0  0  0  0
   -5.3317    0.3718    0.1933 N   0  0  0  0  0  0  0  0  0  0  0  0
   -3.9383    0.2978    0.1510 C   0  0  0  0  0  0  0  0  0  0  0  0
   -3.2485   -0.8288   -0.2922 C   0  0  0  0  0  0  0  0  0  0  0  0
   -1.8701   -0.8264   -0.3061 C   0  0  0  0  0  0  0  0  0  0  0  0
   -1.1399    0.2888    0.1065 C   0  0  0  0  0  0  0  0  0  0  0  0
   -1.8372    1.4085    0.5579 C   0  0  0  0  0  0  0  0  0  0  0  0
   -3.2156    1.4108    0.5813 C   0  0  0  0  0  0  0  0  0  0  0  0
   -3.7439    2.2841    0.9400 H   0  0  0  0  0  0  0  0  0  0  0  0
   -1.3062    2.2767    0.9170 H   0  0  0  0  0  0  0  0  0  0  0  0
    0.3249    0.2433    0.0681 C   0  0  0  0  0  0  0  0  0  0  0  0
    0.8836   -0.9461    0.0783 N   0  0  0  0  0  0  0  0  0  0  0  0
    2.2198   -1.0595    0.0649 C   0  0  0  0  0  0  0  0  0  0  0  0
    2.7608   -2.3618    0.1121 C   0  0  0  0  0  0  0  0  0  0  0  0
    4.1139   -2.5682    0.1284 C   0  0  0  0  0  0  0  0  0  0  0  0
    4.9715   -1.4495    0.1028 C   0  0  0  0  0  0  0  0  0  0  0  0
    4.4844   -0.1738    0.0484 C   0  0  0  0  0  0  0  0  0  0  0  0
    3.0973    0.0646    0.0125 C   0  0  0  0  0  0  0  0  0  0  0  0
    2.4756    1.3403   -0.0492 C   0  0  0  0  0  0  0  0  0  0  0  0
    1.1026    1.4208   -0.0020 C   0  0  0  0  0  0  0  0  0  0  0  0
    0.6370    2.3920   -0.0580 H   0  0  0  0  0  0  0  0  0  0  0  0
    3.1932    2.6352   -0.1710 C   0  0  0  0  0  0  0  0  0  0  0  0
    2.7490    3.6811    0.2340 O   0  0  0  0  0  0  0  0  0  0  0  0
    4.3675    2.5727   -0.8138 O   0  0  0  0  0  0  0  0  0  0  0  0
    4.7490    3.4627   -0.8837 H   0  0  0  0  0  0  0  0  0  0  0  0
    5.1668    0.6602    0.0310 H   0  0  0  0  0  0  0  0  0  0  0  0
    6.0393   -1.6142    0.1296 H   0  0  0  0  0  0  0  0  0  0  0  0
    4.7031   -3.9431    0.1813 C   0  0  0  0  0  0  0  0  0  0  0  0
    5.3324   -4.1169   -0.6909 H   0  0  0  0  0  0  0  0  0  0  0  0
    5.3275   -4.0526    1.0673 H   0  0  0  0  0  0  0  0  0  0  0  0
    3.9240   -4.6999    0.2067 H   0  0  0  0  0  0  0  0  0  0  0  0
    2.0648   -3.1858    0.1457 H   0  0  0  0  0  0  0  0  0  0  0  0
   -1.3282   -1.6953   -0.6440 H   0  0  0  0  0  0  0  0  0  0  0  0
   -3.7990   -1.6940   -0.6208 H   0  0  0  0  0  0  0  0  0  0  0  0
   -5.6903    1.2498    0.5442 H   0  0  0  0  0  0  0  0  0  0  0  0
   -7.8434    0.1673    1.0856 H   0  0  0  0  0  0  0  0  0  0  0  0
   -7.8558    0.8262   -0.5578 H   0  0  0  0  0  0  0  0  0  0  0  0
   -8.3736   -0.8435   -0.2695 H   0  0  0  0  0  0  0  0  0  0  0  0
  1  2  1  0
  1 38  1  0
  1 39  1  0
  1 40  1  0
  2  3  2  0
  2  4  1  0
  4  5  1  0
  4 37  1  0
  5  6  2  0
  5 10  1  0
  6  7  1  0
  6 36  1  0
  7  8  2  0
  7 35  1  0
  8  9  1  0
  8 13  1  0
  9 10  2  0
  9 12  1  0
 10 11  1  0
 13 14  2  0
 13 22  1  0
 14 15  1  0
 15 16  2  0
 15 20  1  0
 16 17  1  0
 16 34  1  0
 17 18  2  0
 17 30  1  0
 18 19  1  0
 18 29  1  0
 19 20  2  0
 19 28  1  0
 20 21  1  0
 21 22  2  0
 21 24  1  0
 22 23  1  0
 24 25  2  0
 24 26  1  0
 26 27  1  0
 30 31  1  0
 30 32  1  0
 30 33  1  0
M  END
$$$$

     RDKit          3D

 40 42  0  0  0  0  0  0  0  0999 V2000
    7.6772    0.0617   -0.0586 C   0  0  0  0  0  0  0  0  0  0  0  0
    6.2594    0.5721    0.1077 C   0  0  0  0  0  0  0  0  0  0  0  0
    5.9966    1.7009    0.4474 O   0  0  0  0  0  0  0  0  0  0  0  0
    5.3316   -0.3933   -0.1715 N   0  0  0  0  0  0  0  0  0  0  0  0
    3.9383   -0.3174   -0.1335 C   0  0  0  0  0  0  0  0  0  0  0  0
    3.2159   -1.4604   -0.4763 C   0  0  0  0  0  0  0  0  0  0  0  0
    1.8375   -1.4572   -0.4528 C   0  0  0  0  0  0  0  0  0  0  0  0
    1.1386   -0.3074   -0.0875 C   0  0  0  0  0  0  0  0  0  0  0  0
    1.8694    0.8356    0.2406 C   0  0  0  0  0  0  0  0  0  0  0  0
    3.2476    0.8388    0.2241 C   0  0  0  0  0  0  0  0  0  0  0  0
    3.7974    1.7270    0.4857 H   0  0  0  0  0  0  0  0  0  0  0  0
    1.3270    1.7265    0.5141 H   0  0  0  0  0  0  0  0  0  0  0  0
   -0.3260   -0.2556   -0.0487 C   0  0  0  0  0  0  0  0  0  0  0  0
   -0.8788    0.9355   -0.1084 N   0  0  0  0  0  0  0  0  0  0  0  0
   -2.2129    1.0601   -0.0625 C   0  0  0  0  0  0  0  0  0  0  0  0
   -2.7433    2.3670   -0.1099 C   0  0  0  0  0  0  0  0  0  0  0  0
   -4.0929    2.5881   -0.0536 C   0  0  0  0  0  0  0  0  0  0  0  0
   -4.9575    1.4802    0.0590 C   0  0  0  0  0  0  0  0  0  0  0  0
   -4.4811    0.2001    0.1023 C   0  0  0  0  0  0  0  0  0  0  0  0
   -3.0982   -0.0553    0.0314 C   0  0  0  0  0  0  0  0  0  0  0  0
   -2.4852   -1.3356    0.0849 C   0  0  0  0  0  0  0  0  0  0  0  0
   -1.1118   -1.4243    0.0631 C   0  0  0  0  0  0  0  0  0  0  0  0
   -0.6550   -2.3978    0.1445 H   0  0  0  0  0  0  0  0  0  0  0  0
   -3.2097   -2.6298    0.1715 C   0  0  0  0  0  0  0  0  0  0  0  0
   -2.7363   -3.6242    0.6637 O   0  0  0  0  0  0  0  0  0  0  0  0
   -4.4277   -2.6368   -0.3879 O   0  0  0  0  0  0  0  0  0  0  0  0
   -4.8116   -3.5260   -0.3211 H   0  0  0  0  0  0  0  0  0  0  0  0
   -5.1691   -0.6248    0.1894 H   0  0  0  0  0  0  0  0  0  0  0  0
   -6.0222    1.6571    0.1140 H   0  0  0  0  0  0  0  0  0  0  0  0
   -4.6706    3.9681   -0.1000 C   0  0  0  0  0  0  0  0  0  0  0  0
   -3.8873    4.7150   -0.1951 H   0  0  0  0  0  0  0  0  0  0  0  0
   -5.3512    4.0637   -0.9452 H   0  0  0  0  0  0  0  0  0  0  0  0
   -5.2388    4.1697    0.8074 H   0  0  0  0  0  0  0  0  0  0  0  0
   -2.0414    3.1831   -0.1862 H   0  0  0  0  0  0  0  0  0  0  0  0
    1.3094   -2.3526   -0.7426 H   0  0  0  0  0  0  0  0  0  0  0  0
    3.7444   -2.3587   -0.7665 H   0  0  0  0  0  0  0  0  0  0  0  0
    5.6909   -1.2980   -0.4456 H   0  0  0  0  0  0  0  0  0  0  0  0
    7.8590   -0.7716    0.6171 H   0  0  0  0  0  0  0  0  0  0  0  0
    7.8402   -0.2720   -1.0814 H   0  0  0  0  0  0  0  0  0  0  0  0
    8.3726    0.8639    0.1698 H   0  0  0  0  0  0  0  0  0  0  0  0
  1  2  1  0
  1 38  1  0
  1 39  1  0
  1 40  1  0
  2  3  2  0
  2  4  1  0
  4  5  1  0
  4 37  1  0
  5  6  2  0
  5 10  1  0
  6  7  1  0
  6 36  1  0
  7  8  2  0
  7 35  1  0
  8  9  1  0
  8 13  1  0
  9 10  2  0
  9 12  1  0
 10 11  1  0
 13 14  2  0
 13 22  1  0
 14 15  1  0
 15 16  2  0
 15 20  1  0
 16 17  1  0
 16 34  1  0
 17 18  2  0
 17 30  1  0
 18 19  1  0
 18 29  1  0
 19 20  2  0
 19 28  1  0
 20 21  1  0
 21 22  2  0
 21 24  1  0
 22 23  1  0
 24 25  2  0
 24 26  1  0
 26 27  1  0
 30 31  1  0
 30 32  1  0
 30 33  1  0
M  END
$$$$

     RDKit          3D

 40 42  0  0  0  0  0  0  0  0999 V2000
    7.6609    0.7033    0.0029 C   0  0  0  0  0  0  0  0  0  0  0  0
    6.3311   -0.0230    0.0506 C   0  0  0  0  0  0  0  0  0  0  0  0
    6.2339   -1.2226    0.1519 O   0  0  0  0  0  0  0  0  0  0  0  0
    5.2728    0.8395   -0.0323 N   0  0  0  0  0  0  0  0  0  0  0  0
    3.9049    0.5636   -0.0218 C   0  0  0  0  0  0  0  0  0  0  0  0
    3.0215    1.6392   -0.1311 C   0  0  0  0  0  0  0  0  0  0  0  0
    1.6620    1.4292   -0.1282 C   0  0  0  0  0  0  0  0  0  0  0  0
    1.1327    0.1404   -0.0162 C   0  0  0  0  0  0  0  0  0  0  0  0
    2.0234   -0.9265    0.0973 C   0  0  0  0  0  0  0  0  0  0  0  0
    3.3891   -0.7242    0.0944 C   0  0  0  0  0  0  0  0  0  0  0  0
    4.0626   -1.5598    0.1825 H   0  0  0  0  0  0  0  0  0  0  0  0
    1.6615   -1.9373    0.1989 H   0  0  0  0  0  0  0  0  0  0  0  0
   -0.3246   -0.0247   -0.0163 C   0  0  0  0  0  0  0  0  0  0  0  0
   -1.0417    1.0775    0.0341 N   0  0  0  0  0  0  0  0  0  0  0  0
   -2.3804    1.0142    0.0215 C   0  0  0  0  0  0  0  0  0  0  0  0
   -3.0888    2.2347    0.0442 C   0  0  0  0  0  0  0  0  0  0  0  0
   -4.4569    2.2623    0.0146 C   0  0  0  0  0  0  0  0  0  0  0  0
   -5.1596    1.0413   -0.0416 C   0  0  0  0  0  0  0  0  0  0  0  0
   -4.5085   -0.1601   -0.0580 C   0  0  0  0  0  0  0  0  0  0  0  0
   -3.1024   -0.2155   -0.0162 C   0  0  0  0  0  0  0  0  0  0  0  0
   -2.3160   -1.3974   -0.0470 C   0  0  0  0  0  0  0  0  0  0  0  0
   -0.9440   -1.2941   -0.0696 C   0  0  0  0  0  0  0  0  0  0  0  0
   -0.3635   -2.2005   -0.1252 H   0  0  0  0  0  0  0  0  0  0  0  0
   -2.8579   -2.7810   -0.0600 C   0  0  0  0  0  0  0  0  0  0  0  0
   -2.2835   -3.7160   -0.5597 O   0  0  0  0  0  0  0  0  0  0  0  0
   -4.0273   -2.9332    0.5774 O   0  0  0  0  0  0  0  0  0  0  0  0
   -4.2888   -3.8680    0.5598 H   0  0  0  0  0  0  0  0  0  0  0  0
   -5.0744   -1.0763   -0.1026 H   0  0  0  0  0  0  0  0  0  0  0  0
   -6.2395    1.0658   -0.0752 H   0  0  0  0  0  0  0  0  0  0  0  0
   -5.2224    3.5485    0.0314 C   0  0  0  0  0  0  0  0  0  0  0  0
   -5.8407    3.6311   -0.8618 H   0  0  0  0  0  0  0  0  0  0  0  0
   -5.8839    3.5822    0.8964 H   0  0  0  0  0  0  0  0  0  0  0  0
   -4.5505    4.4014    0.0716 H   0  0  0  0  0  0  0  0  0  0  0  0
   -2.5089    3.1443    0.0769 H   0  0  0  0  0  0  0  0  0  0  0  0
    0.9766    2.2572   -0.2123 H   0  0  0  0  0  0  0  0  0  0  0  0
    3.4122    2.6441   -0.2197 H   0  0  0  0  0  0  0  0  0  0  0  0
    5.4968    1.8222   -0.1152 H   0  0  0  0  0  0  0  0  0  0  0  0
    7.7515    1.2643   -0.9250 H   0  0  0  0  0  0  0  0  0  0  0  0
    7.7426    1.3927    0.8410 H   0  0  0  0  0  0  0  0  0  0  0  0
    8.4652   -0.0240    0.0603 H   0  0  0  0  0  0  0  0  0  0  0  0
  1  2  1  0
  1 38  1  0
  1 39  1  0
  1 40  1  0
  2  3  2  0
  2  4  1  0
  4  5  1  0
  4 37  1  0
  5  6  2  0
  5 10  1  0
  6  7  1  0
  6 36  1  0
  7  8  2  0
  7 35  1  0
  8  9  1  0
  8 13  1  0
  9 10  2  0
  9 12  1  0
 10 11  1  0
 13 14  2  0
 13 22  1  0
 14 15  1  0
 15 16  2  0
 15 20  1  0
 16 17  1  0
 16 34  1  0
 17 18  2  0
 17 30  1  0
 18 19  1  0
 18 29  1  0
 19 20  2  0
 19 28  1  0
 20 21  1  0
 21 22  2  0
 21 24  1  0
 22 23  1  0
 24 25  2  0
 24 26  1  0
 26 27  1  0
 30 31  1  0
 30 32  1  0
 30 33  1  0
M  END
$$$$

     RDKit          3D

 40 42  0  0  0  0  0  0  0  0999 V2000
    7.6752    0.6435    0.0859 C   0  0  0  0  0  0  0  0  0  0  0  0
    6.3203   -0.0047   -0.1175 C   0  0  0  0  0  0  0  0  0  0  0  0
    6.2032   -1.1365   -0.5266 O   0  0  0  0  0  0  0  0  0  0  0  0
    5.2723    0.8108    0.2055 N   0  0  0  0  0  0  0  0  0  0  0  0
    3.9014    0.5509    0.1400 C   0  0  0  0  0  0  0  0  0  0  0  0
    3.0296    1.5634    0.5448 C   0  0  0  0  0  0  0  0  0  0  0  0
    1.6675    1.3706    0.5038 C   0  0  0  0  0  0  0  0  0  0  0  0
    1.1305    0.1586    0.0658 C   0  0  0  0  0  0  0  0  0  0  0  0
    2.0069   -0.8441   -0.3453 C   0  0  0  0  0  0  0  0  0  0  0  0
    3.3743   -0.6557   -0.3123 C   0  0  0  0  0  0  0  0  0  0  0  0
    4.0398   -1.4373   -0.6375 H   0  0  0  0  0  0  0  0  0  0  0  0
    1.6250   -1.7808   -0.7208 H   0  0  0  0  0  0  0  0  0  0  0  0
   -0.3260   -0.0057    0.0360 C   0  0  0  0  0  0  0  0  0  0  0  0
   -1.0465    1.0937    0.0152 N   0  0  0  0  0  0  0  0  0  0  0  0
   -2.3846    1.0176   -0.0362 C   0  0  0  0  0  0  0  0  0  0  0  0
   -3.1025    2.2310   -0.0941 C   0  0  0  0  0  0  0  0  0  0  0  0
   -4.4688    2.2446   -0.1764 C   0  0  0  0  0  0  0  0  0  0  0  0
   -5.1591    1.0158   -0.2077 C   0  0  0  0  0  0  0  0  0  0  0  0
   -4.4987   -0.1789   -0.1441 C   0  0  0  0  0  0  0  0  0  0  0  0
   -3.0951   -0.2195   -0.0416 C   0  0  0  0  0  0  0  0  0  0  0  0
   -2.3027   -1.3959    0.0339 C   0  0  0  0  0  0  0  0  0  0  0  0
   -0.9315   -1.2823    0.0521 C   0  0  0  0  0  0  0  0  0  0  0  0
   -0.3358   -2.1789    0.1157 H   0  0  0  0  0  0  0  0  0  0  0  0
   -2.8378   -2.7803    0.1029 C   0  0  0  0  0  0  0  0  0  0  0  0
   -2.2404   -3.7448   -0.3050 O   0  0  0  0  0  0  0  0  0  0  0  0
   -4.0307   -2.8940    0.7039 O   0  0  0  0  0  0  0  0  0  0  0  0
   -4.2880   -3.8293    0.7428 H   0  0  0  0  0  0  0  0  0  0  0  0
   -5.0555   -1.1014   -0.1714 H   0  0  0  0  0  0  0  0  0  0  0  0
   -6.2369    1.0286   -0.2867 H   0  0  0  0  0  0  0  0  0  0  0  0
   -5.2439    3.5233   -0.2443 C   0  0  0  0  0  0  0  0  0  0  0  0
   -5.9455    3.5836    0.5870 H   0  0  0  0  0  0  0  0  0  0  0  0
   -4.5810    4.3833   -0.2060 H   0  0  0  0  0  0  0  0  0  0  0  0
   -5.8202    3.5662   -1.1679 H   0  0  0  0  0  0  0  0  0  0  0  0
   -2.5303    3.1460   -0.0829 H   0  0  0  0  0  0  0  0  0  0  0  0
    0.9906    2.1513    0.8122 H   0  0  0  0  0  0  0  0  0  0  0  0
    3.4305    2.5061    0.8926 H   0  0  0  0  0  0  0  0  0  0  0  0
    5.4974    1.7372    0.5413 H   0  0  0  0  0  0  0  0  0  0  0  0
    8.2076    0.6381   -0.8628 H   0  0  0  0  0  0  0  0  0  0  0  0
    7.6101    1.6615    0.4586 H   0  0  0  0  0  0  0  0  0  0  0  0
    8.2483    0.0374    0.7844 H   0  0  0  0  0  0  0  0  0  0  0  0
  1  2  1  0
  1 38  1  0
  1 39  1  0
  1 40  1  0
  2  3  2  0
  2  4  1  0
  4  5  1  0
  4 37  1  0
  5  6  2  0
  5 10  1  0
  6  7  1  0
  6 36  1  0
  7  8  2  0
  7 35  1  0
  8  9  1  0
  8 13  1  0
  9 10  2  0
  9 12  1  0
 10 11  1  0
 13 14  2  0
 13 22  1  0
 14 15  1  0
 15 16  2  0
 15 20  1  0
 16 17  1  0
 16 34  1  0
 17 18  2  0
 17 30  1  0
 18 19  1  0
 18 29  1  0
 19 20  2  0
 19 28  1  0
 20 21  1  0
 21 22  2  0
 21 24  1  0
 22 23  1  0
 24 25  2  0
 24 26  1  0
 26 27  1  0
 30 31  1  0
 30 32  1  0
 30 33  1  0
M  END
$$$$
