
     RDKit          3D

 14 13  0  0  0  0  0  0  0  0999 V2000
   -2.8136   -0.2289   -0.0000 C   0  0  0  0  0  0  0  0  0  0  0  0
   -1.4462    0.4408   -0.0000 C   0  0  0  0  0  0  0  0  0  0  0  0
   -0.3206   -0.5887    0.0001 C   0  0  0  0  0  0  0  0  0  0  0  0
    1.0411    0.0538    0.0001 C   0  0  0  0  0  0  0  0  0  0  0  0
    1.2713    1.2319   -0.0000 O   0  0  0  0  0  0  0  0  0  0  0  0
    2.0183   -0.8673   -0.0001 O   0  0  0  0  0  0  0  0  0  0  0  0
    2.8874   -0.4362   -0.0002 H   0  0  0  0  0  0  0  0  0  0  0  0
   -0.3842   -1.2350    0.8787 H   0  0  0  0  0  0  0  0  0  0  0  0
   -0.3841   -1.2351   -0.8786 H   0  0  0  0  0  0  0  0  0  0  0  0
   -1.3443    1.0791    0.8790 H   0  0  0  0  0  0  0  0  0  0  0  0
   -1.3442    1.0790   -0.8790 H   0  0  0  0  0  0  0  0  0  0  0  0
   -3.6021    0.5191   -0.0001 H   0  0  0  0  0  0  0  0  0  0  0  0
   -2.9346   -0.8541    0.8820 H   0  0  0  0  0  0  0  0  0  0  0  0
   -2.9345   -0.8542   -0.8821 H   0  0  0  0  0  0  0  0  0  0  0  0
  1  2  1  0
  1 12  1  0
  1 13  1  0
  1 14  1  0
  2  3  1  0
  2 10  1  0
  2 11  1  0
  3  4  1  0
  3  8  1  0
  3  9  1  0
  4  5  2  0
  4  6  1  0
  6  7  1  0
M  END
$$$$

     RDKit          3D

 14 13  0  0  0  0  0  0  0  0999 V2000
   -2.0957   -0.2138   -0.8257 C   0  0  0  0  0  0  0  0  0  0  0  0
   -1.5871    0.1324    0.5682 C   0  0  0  0  0  0  0  0  0  0  0  0
   -0.2409    0.8522    0.5126 C   0  0  0  0  0  0  0  0  0  0  0  0
    0.8775   -0.0697    0.0977 C   0  0  0  0  0  0  0  0  0  0  0  0
    0.9238   -1.2556    0.2791 O   0  0  0  0  0  0  0  0  0  0  0  0
    1.8732    0.6026   -0.4998 O   0  0  0  0  0  0  0  0  0  0  0  0
    2.5959   -0.0004   -0.7355 H   0  0  0  0  0  0  0  0  0  0  0  0
   -0.2673    1.6981   -0.1753 H   0  0  0  0  0  0  0  0  0  0  0  0
    0.0217    1.2340    1.5031 H   0  0  0  0  0  0  0  0  0  0  0  0
   -1.4680   -0.7837    1.1488 H   0  0  0  0  0  0  0  0  0  0  0  0
   -2.3123    0.7702    1.0765 H   0  0  0  0  0  0  0  0  0  0  0  0
   -3.0587   -0.7142   -0.7644 H   0  0  0  0  0  0  0  0  0  0  0  0
   -1.3966   -0.8780   -1.3277 H   0  0  0  0  0  0  0  0  0  0  0  0
   -2.2130    0.6857   -1.4272 H   0  0  0  0  0  0  0  0  0  0  0  0
  1  2  1  0
  1 12  1  0
  1 13  1  0
  1 14  1  0
  2  3  1  0
  2 10  1  0
  2 11  1  0
  3  4  1  0
  3  8  1  0
  3  9  1  0
  4  5  2  0
  4  6  1  0
  6  7  1  0
M  END
$$$$

     RDKit          3D

 14 13  0  0  0  0  0  0  0  0999 V2000
   -2.1070   -0.2682    0.7947 C   0  0  0  0  0  0  0  0  0  0  0  0
   -1.5865    0.1923   -0.5612 C   0  0  0  0  0  0  0  0  0  0  0  0
   -0.2334    0.8899   -0.4387 C   0  0  0  0  0  0  0  0  0  0  0  0
    0.8771   -0.0695   -0.0941 C   0  0  0  0  0  0  0  0  0  0  0  0
    0.8948   -1.2485   -0.3193 O   0  0  0  0  0  0  0  0  0  0  0  0
    1.9041    0.5623    0.4954 O   0  0  0  0  0  0  0  0  0  0  0  0
    2.6217   -0.0623    0.6862 H   0  0  0  0  0  0  0  0  0  0  0  0
    0.0397    1.3517   -1.3916 H   0  0  0  0  0  0  0  0  0  0  0  0
   -0.2564    1.6768    0.3164 H   0  0  0  0  0  0  0  0  0  0  0  0
   -2.3019    0.8808   -1.0145 H   0  0  0  0  0  0  0  0  0  0  0  0
   -1.4765   -0.6710   -1.2191 H   0  0  0  0  0  0  0  0  0  0  0  0
   -2.2113    0.5760    1.4736 H   0  0  0  0  0  0  0  0  0  0  0  0
   -1.4216   -0.9870    1.2364 H   0  0  0  0  0  0  0  0  0  0  0  0
   -3.0785   -0.7438    0.6861 H   0  0  0  0  0  0  0  0  0  0  0  0
  1  2  1  0
  1 12  1  0
  1 13  1  0
  1 14  1  0
  2  3  1  0
  2 10  1  0
  2 11  1  0
  3  4  1  0
  3  8  1  0
  3  9  1  0
  4  5  2  0
  4  6  1  0
  6  7  1  0
M  END
$$$$

     RDKit          3D

 14 13  0  0  0  0  0  0  0  0999 V2000
    2.1008    0.2748    0.7962 C   0  0  0  0  0  0  0  0  0  0  0  0
    1.5879   -0.1975   -0.5585 C   0  0  0  0  0  0  0  0  0  0  0  0
    0.2331   -0.8926   -0.4391 C   0  0  0  0  0  0  0  0  0  0  0  0
   -0.8760    0.0688   -0.0957 C   0  0  0  0  0  0  0  0  0  0  0  0
   -0.8936    1.2468   -0.3266 O   0  0  0  0  0  0  0  0  0  0  0  0
   -1.9015   -0.5595    0.5000 O   0  0  0  0  0  0  0  0  0  0  0  0
   -2.6179    0.0664    0.6909 H   0  0  0  0  0  0  0  0  0  0  0  0
   -0.0385   -1.3528   -1.3932 H   0  0  0  0  0  0  0  0  0  0  0  0
    0.2536   -1.6804    0.3152 H   0  0  0  0  0  0  0  0  0  0  0  0
    2.3046   -0.8915   -1.0013 H   0  0  0  0  0  0  0  0  0  0  0  0
    1.4835    0.6602   -1.2246 H   0  0  0  0  0  0  0  0  0  0  0  0
    1.4176    1.0039    1.2243 H   0  0  0  0  0  0  0  0  0  0  0  0
    3.0765    0.7423    0.6893 H   0  0  0  0  0  0  0  0  0  0  0  0
    2.1938   -0.5619    1.4860 H   0  0  0  0  0  0  0  0  0  0  0  0
  1  2  1  0
  1 12  1  0
  1 13  1  0
  1 14  1  0
  2  3  1  0
  2 10  1  0
  2 11  1  0
  3  4  1  0
  3  8  1  0
  3  9  1  0
  4  5  2  0
  4  6  1  0
  6  7  1  0
M  END
$$$$

     RDKit          3D

 14 13  0  0  0  0  0  0  0  0999 V2000
   -2.0787   -0.2477    0.8241 C   0  0  0  0  0  0  0  0  0  0  0  0
   -1.5922    0.1622   -0.5603 C   0  0  0  0  0  0  0  0  0  0  0  0
   -0.2395    0.8691   -0.4956 C   0  0  0  0  0  0  0  0  0  0  0  0
    0.8739   -0.0678   -0.1014 C   0  0  0  0  0  0  0  0  0  0  0  0
    0.9156   -1.2492   -0.3110 O   0  0  0  0  0  0  0  0  0  0  0  0
    1.8715    0.5861    0.5133 O   0  0  0  0  0  0  0  0  0  0  0  0
    2.5923   -0.0248    0.7343 H   0  0  0  0  0  0  0  0  0  0  0  0
    0.0225    1.2664   -1.4802 H   0  0  0  0  0  0  0  0  0  0  0  0
   -0.2568    1.7028    0.2074 H   0  0  0  0  0  0  0  0  0  0  0  0
   -2.3207    0.8306   -1.0229 H   0  0  0  0  0  0  0  0  0  0  0  0
   -1.4932   -0.7254   -1.1868 H   0  0  0  0  0  0  0  0  0  0  0  0
   -3.0523   -0.7266    0.7574 H   0  0  0  0  0  0  0  0  0  0  0  0
   -2.1663    0.6206    1.4743 H   0  0  0  0  0  0  0  0  0  0  0  0
   -1.3821   -0.9503    1.2747 H   0  0  0  0  0  0  0  0  0  0  0  0
  1  2  1  0
  1 12  1  0
  1 13  1  0
  1 14  1  0
  2  3  1  0
  2 10  1  0
  2 11  1  0
  3  4  1  0
  3  8  1  0
  3  9  1  0
  4  5  2  0
  4  6  1  0
  6  7  1  0
M  END
$$$$

     RDKit          3D

 14 13  0  0  0  0  0  0  0  0999 V2000
   -2.1082   -0.2871   -0.7834 C   0  0  0  0  0  0  0  0  0  0  0  0
   -1.5853    0.2138    0.5570 C   0  0  0  0  0  0  0  0  0  0  0  0
   -0.2302    0.9034    0.4133 C   0  0  0  0  0  0  0  0  0  0  0  0
    0.8760   -0.0691    0.0929 C   0  0  0  0  0  0  0  0  0  0  0  0
    0.8816   -1.2453    0.3331 O   0  0  0  0  0  0  0  0  0  0  0  0
    1.9147    0.5467   -0.4930 O   0  0  0  0  0  0  0  0  0  0  0  0
    2.6286   -0.0867   -0.6674 H   0  0  0  0  0  0  0  0  0  0  0  0
   -0.2523    1.6702   -0.3624 H   0  0  0  0  0  0  0  0  0  0  0  0
    0.0466    1.3899    1.3527 H   0  0  0  0  0  0  0  0  0  0  0  0
   -1.4774   -0.6292    1.2409 H   0  0  0  0  0  0  0  0  0  0  0  0
   -2.2984    0.9179    0.9895 H   0  0  0  0  0  0  0  0  0  0  0  0
   -1.4212   -1.0152   -1.2073 H   0  0  0  0  0  0  0  0  0  0  0  0
   -2.2197    0.5370   -1.4855 H   0  0  0  0  0  0  0  0  0  0  0  0
   -3.0768   -0.7642   -0.6569 H   0  0  0  0  0  0  0  0  0  0  0  0
  1  2  1  0
  1 12  1  0
  1 13  1  0
  1 14  1  0
  2  3  1  0
  2 10  1  0
  2 11  1  0
  3  4  1  0
  3  8  1  0
  3  9  1  0
  4  5  2  0
  4  6  1  0
  6  7  1  0
M  END
$$$$

     RDKit          3D

 14 13  0  0  0  0  0  0  0  0999 V2000
   -2.8135   -0.1945   -0.0418 C   0  0  0  0  0  0  0  0  0  0  0  0
   -1.4366    0.3881    0.2468 C   0  0  0  0  0  0  0  0  0  0  0  0
   -0.3255   -0.5567   -0.2076 C   0  0  0  0  0  0  0  0  0  0  0  0
    1.0422    0.0567   -0.0500 C   0  0  0  0  0  0  0  0  0  0  0  0
    1.3010    1.2287   -0.0839 O   0  0  0  0  0  0  0  0  0  0  0  0
    1.9862   -0.8815    0.1243 O   0  0  0  0  0  0  0  0  0  0  0  0
    2.8631   -0.4731    0.2046 H   0  0  0  0  0  0  0  0  0  0  0  0
   -0.3506   -1.4996    0.3401 H   0  0  0  0  0  0  0  0  0  0  0  0
   -0.4534   -0.7876   -1.2693 H   0  0  0  0  0  0  0  0  0  0  0  0
   -1.3332    0.5751    1.3173 H   0  0  0  0  0  0  0  0  0  0  0  0
   -1.3187    1.3434   -0.2669 H   0  0  0  0  0  0  0  0  0  0  0  0
   -2.9469   -1.1409    0.4788 H   0  0  0  0  0  0  0  0  0  0  0  0
   -2.9421   -0.3669   -1.1086 H   0  0  0  0  0  0  0  0  0  0  0  0
   -3.5911    0.4889    0.2886 H   0  0  0  0  0  0  0  0  0  0  0  0
  1  2  1  0
  1 12  1  0
  1 13  1  0
  1 14  1  0
  2  3  1  0
  2 10  1  0
  2 11  1  0
  3  4  1  0
  3  8  1  0
  3  9  1  0
  4  5  2  0
  4  6  1  0
  6  7  1  0
M  END
$$$$

     RDKit          3D

 14 13  0  0  0  0  0  0  0  0999 V2000
   -2.8120   -0.1861   -0.0366 C   0  0  0  0  0  0  0  0  0  0  0  0
   -1.4276    0.3729    0.2588 C   0  0  0  0  0  0  0  0  0  0  0  0
   -0.3229   -0.5613   -0.2319 C   0  0  0  0  0  0  0  0  0  0  0  0
    1.0396    0.0552   -0.0557 C   0  0  0  0  0  0  0  0  0  0  0  0
    1.2893    1.2295   -0.0868 O   0  0  0  0  0  0  0  0  0  0  0  0
    1.9878   -0.8742    0.1361 O   0  0  0  0  0  0  0  0  0  0  0  0
    2.8572   -0.4540    0.2319 H   0  0  0  0  0  0  0  0  0  0  0  0
   -0.3438   -1.5205    0.2862 H   0  0  0  0  0  0  0  0  0  0  0  0
   -0.4516   -0.7548   -1.3009 H   0  0  0  0  0  0  0  0  0  0  0  0
   -1.3152    0.5260    1.3343 H   0  0  0  0  0  0  0  0  0  0  0  0
   -1.3048    1.3424   -0.2263 H   0  0  0  0  0  0  0  0  0  0  0  0
   -2.9587   -0.3057   -1.1076 H   0  0  0  0  0  0  0  0  0  0  0  0
   -3.5776    0.4871    0.3406 H   0  0  0  0  0  0  0  0  0  0  0  0
   -2.9440   -1.1557    0.4386 H   0  0  0  0  0  0  0  0  0  0  0  0
  1  2  1  0
  1 12  1  0
  1 13  1  0
  1 14  1  0
  2  3  1  0
  2 10  1  0
  2 11  1  0
  3  4  1  0
  3  8  1  0
  3  9  1  0
  4  5  2  0
  4  6  1  0
  6  7  1  0
M  END
$$$$

     RDKit          3D

 14 13  0  0  0  0  0  0  0  0999 V2000
   -2.8126   -0.1783    0.0434 C   0  0  0  0  0  0  0  0  0  0  0  0
   -1.4291    0.3619   -0.2919 C   0  0  0  0  0  0  0  0  0  0  0  0
   -0.3266   -0.5399    0.2615 C   0  0  0  0  0  0  0  0  0  0  0  0
    1.0417    0.0575    0.0620 C   0  0  0  0  0  0  0  0  0  0  0  0
    1.3126    1.2267    0.0918 O   0  0  0  0  0  0  0  0  0  0  0  0
    1.9696   -0.8878   -0.1487 O   0  0  0  0  0  0  0  0  0  0  0  0
    2.8460   -0.4859   -0.2590 H   0  0  0  0  0  0  0  0  0  0  0  0
   -0.4665   -0.6650    1.3388 H   0  0  0  0  0  0  0  0  0  0  0  0
   -0.3474   -1.5279   -0.1979 H   0  0  0  0  0  0  0  0  0  0  0  0
   -1.3078    1.3627    0.1239 H   0  0  0  0  0  0  0  0  0  0  0  0
   -1.3179    0.4379   -1.3753 H   0  0  0  0  0  0  0  0  0  0  0  0
   -2.9680   -0.1989    1.1195 H   0  0  0  0  0  0  0  0  0  0  0  0
   -2.9311   -1.1891   -0.3406 H   0  0  0  0  0  0  0  0  0  0  0  0
   -3.5824    0.4479   -0.4006 H   0  0  0  0  0  0  0  0  0  0  0  0
  1  2  1  0
  1 12  1  0
  1 13  1  0
  1 14  1  0
  2  3  1  0
  2 10  1  0
  2 11  1  0
  3  4  1  0
  3  8  1  0
  3  9  1  0
  4  5  2  0
  4  6  1  0
  6  7  1  0
M  END
$$$$

     RDKit          3D

 14 13  0  0  0  0  0  0  0  0999 V2000
   -2.2036   -0.4146    0.5599 C   0  0  0  0  0  0  0  0  0  0  0  0
   -1.5466    0.4322   -0.5231 C   0  0  0  0  0  0  0  0  0  0  0  0
   -0.1923    0.9757   -0.0730 C   0  0  0  0  0  0  0  0  0  0  0  0
    0.8768   -0.0849   -0.0395 C   0  0  0  0  0  0  0  0  0  0  0  0
    0.7426   -1.2493   -0.2985 O   0  0  0  0  0  0  0  0  0  0  0  0
    2.0660    0.4331    0.3076 O   0  0  0  0  0  0  0  0  0  0  0  0
    2.7427   -0.2616    0.2916 H   0  0  0  0  0  0  0  0  0  0  0  0
    0.1594    1.7636   -0.7438 H   0  0  0  0  0  0  0  0  0  0  0  0
   -0.2556    1.4106    0.9267 H   0  0  0  0  0  0  0  0  0  0  0  0
   -2.1981    1.2685   -0.7859 H   0  0  0  0  0  0  0  0  0  0  0  0
   -1.3977   -0.1751   -1.4187 H   0  0  0  0  0  0  0  0  0  0  0  0
   -1.5777   -1.2721    0.7882 H   0  0  0  0  0  0  0  0  0  0  0  0
   -3.1769   -0.7698    0.2296 H   0  0  0  0  0  0  0  0  0  0  0  0
   -2.3447    0.1660    1.4696 H   0  0  0  0  0  0  0  0  0  0  0  0
  1  2  1  0
  1 12  1  0
  1 13  1  0
  1 14  1  0
  2  3  1  0
  2 10  1  0
  2 11  1  0
  3  4  1  0
  3  8  1  0
  3  9  1  0
  4  5  2  0
  4  6  1  0
  6  7  1  0
M  END
$$$$

     RDKit          3D

 14 13  0  0  0  0  0  0  0  0999 V2000
   -2.7821   -0.0178    0.0081 C   0  0  0  0  0  0  0  0  0  0  0  0
   -1.3472    0.0054   -0.5010 C   0  0  0  0  0  0  0  0  0  0  0  0
   -0.3481    0.0807    0.6618 C   0  0  0  0  0  0  0  0  0  0  0  0
    1.0544    0.0979    0.1165 C   0  0  0  0  0  0  0  0  0  0  0  0
    1.6904    1.0792   -0.1581 O   0  0  0  0  0  0  0  0  0  0  0  0
    1.5306   -1.1409   -0.0720 O   0  0  0  0  0  0  0  0  0  0  0  0
    2.4214   -1.1078   -0.4550 H   0  0  0  0  0  0  0  0  0  0  0  0
   -0.5163    0.9950    1.2313 H   0  0  0  0  0  0  0  0  0  0  0  0
   -0.4698   -0.7889    1.3074 H   0  0  0  0  0  0  0  0  0  0  0  0
   -1.2005    0.8693   -1.1523 H   0  0  0  0  0  0  0  0  0  0  0  0
   -1.1494   -0.8967   -1.0836 H   0  0  0  0  0  0  0  0  0  0  0  0
   -2.9994    0.8800    0.5820 H   0  0  0  0  0  0  0  0  0  0  0  0
   -2.9465   -0.8827    0.6468 H   0  0  0  0  0  0  0  0  0  0  0  0
   -3.4776   -0.0693   -0.8258 H   0  0  0  0  0  0  0  0  0  0  0  0
  1  2  1  0
  1 12  1  0
  1 13  1  0
  1 14  1  0
  2  3  1  0
  2 10  1  0
  2 11  1  0
  3  4  1  0
  3  8  1  0
  3  9  1  0
  4  5  2  0
  4  6  1  0
  6  7  1  0
M  END
$$$$

     RDKit          3D

 14 13  0  0  0  0  0  0  0  0999 V2000
   -2.7891   -0.0673   -0.0051 C   0  0  0  0  0  0  0  0  0  0  0  0
   -1.3600    0.1336    0.4802 C   0  0  0  0  0  0  0  0  0  0  0  0
   -0.3473   -0.1566   -0.6356 C   0  0  0  0  0  0  0  0  0  0  0  0
    1.0473    0.0808   -0.1207 C   0  0  0  0  0  0  0  0  0  0  0  0
    1.5584    1.1545    0.0493 O   0  0  0  0  0  0  0  0  0  0  0  0
    1.6756   -1.0665    0.1707 O   0  0  0  0  0  0  0  0  0  0  0  0
    2.5605   -0.8902    0.5281 H   0  0  0  0  0  0  0  0  0  0  0  0
   -0.4369   -1.1910   -0.9663 H   0  0  0  0  0  0  0  0  0  0  0  0
   -0.5306    0.5177   -1.4731 H   0  0  0  0  0  0  0  0  0  0  0  0
   -1.1634   -0.5304    1.3247 H   0  0  0  0  0  0  0  0  0  0  0  0
   -1.2246    1.1619    0.8203 H   0  0  0  0  0  0  0  0  0  0  0  0
   -3.4925    0.1435    0.7966 H   0  0  0  0  0  0  0  0  0  0  0  0
   -2.9407   -1.0927   -0.3344 H   0  0  0  0  0  0  0  0  0  0  0  0
   -3.0077    0.5969   -0.8378 H   0  0  0  0  0  0  0  0  0  0  0  0
  1  2  1  0
  1 12  1  0
  1 13  1  0
  1 14  1  0
  2  3  1  0
  2 10  1  0
  2 11  1  0
  3  4  1  0
  3  8  1  0
  3  9  1  0
  4  5  2  0
  4  6  1  0
  6  7  1  0
M  END
$$$$

     RDKit          3D

 14 13  0  0  0  0  0  0  0  0999 V2000
   -2.0086   -0.6254   -0.6232 C   0  0  0  0  0  0  0  0  0  0  0  0
   -1.5257    0.5853    0.1653 C   0  0  0  0  0  0  0  0  0  0  0  0
   -0.2897    0.2557    1.0109 C   0  0  0  0  0  0  0  0  0  0  0  0
    0.8929   -0.0742    0.1375 C   0  0  0  0  0  0  0  0  0  0  0  0
    1.4446   -1.1391    0.0701 O   0  0  0  0  0  0  0  0  0  0  0  0
    1.2889    0.9822   -0.5874 O   0  0  0  0  0  0  0  0  0  0  0  0
    2.0431    0.7424   -1.1480 H   0  0  0  0  0  0  0  0  0  0  0  0
   -0.0259    1.1221    1.6198 H   0  0  0  0  0  0  0  0  0  0  0  0
   -0.4887   -0.5977    1.6594 H   0  0  0  0  0  0  0  0  0  0  0  0
   -2.3210    0.9290    0.8296 H   0  0  0  0  0  0  0  0  0  0  0  0
   -1.2803    1.4002   -0.5177 H   0  0  0  0  0  0  0  0  0  0  0  0
   -1.2279   -0.9889   -1.2874 H   0  0  0  0  0  0  0  0  0  0  0  0
   -2.8778   -0.3660   -1.2229 H   0  0  0  0  0  0  0  0  0  0  0  0
   -2.2834   -1.4340    0.0504 H   0  0  0  0  0  0  0  0  0  0  0  0
  1  2  1  0
  1 12  1  0
  1 13  1  0
  1 14  1  0
  2  3  1  0
  2 10  1  0
  2 11  1  0
  3  4  1  0
  3  8  1  0
  3  9  1  0
  4  5  2  0
  4  6  1  0
  6  7  1  0
M  END
$$$$

     RDKit          3D

 14 13  0  0  0  0  0  0  0  0999 V2000
   -2.0033   -0.6429    0.6008 C   0  0  0  0  0  0  0  0  0  0  0  0
   -1.5238    0.6020   -0.1346 C   0  0  0  0  0  0  0  0  0  0  0  0
   -0.2893    0.3128   -0.9979 C   0  0  0  0  0  0  0  0  0  0  0  0
    0.8888   -0.0739   -0.1420 C   0  0  0  0  0  0  0  0  0  0  0  0
    1.4063   -1.1571   -0.1017 O   0  0  0  0  0  0  0  0  0  0  0  0
    1.3216    0.9531    0.6038 O   0  0  0  0  0  0  0  0  0  0  0  0
    2.0714    0.6780    1.1540 H   0  0  0  0  0  0  0  0  0  0  0  0
   -0.4947   -0.5027   -1.6916 H   0  0  0  0  0  0  0  0  0  0  0  0
   -0.0200    1.2100   -1.5575 H   0  0  0  0  0  0  0  0  0  0  0  0
   -1.2784    1.3864    0.5834 H   0  0  0  0  0  0  0  0  0  0  0  0
   -2.3211    0.9733   -0.7814 H   0  0  0  0  0  0  0  0  0  0  0  0
   -2.2627   -1.4276   -0.1065 H   0  0  0  0  0  0  0  0  0  0  0  0
   -2.8817   -0.4146    1.1998 H   0  0  0  0  0  0  0  0  0  0  0  0
   -1.2266   -1.0250    1.2591 H   0  0  0  0  0  0  0  0  0  0  0  0
  1  2  1  0
  1 12  1  0
  1 13  1  0
  1 14  1  0
  2  3  1  0
  2 10  1  0
  2 11  1  0
  3  4  1  0
  3  8  1  0
  3  9  1  0
  4  5  2  0
  4  6  1  0
  6  7  1  0
M  END
$$$$

     RDKit          3D

 14 13  0  0  0  0  0  0  0  0999 V2000
   -2.7854   -0.0798    0.0156 C   0  0  0  0  0  0  0  0  0  0  0  0
   -1.3615    0.2235   -0.4328 C   0  0  0  0  0  0  0  0  0  0  0  0
   -0.3399   -0.4098    0.5181 C   0  0  0  0  0  0  0  0  0  0  0  0
    1.0711   -0.1191    0.0808 C   0  0  0  0  0  0  0  0  0  0  0  0
    1.8875   -0.9389   -0.2435 O   0  0  0  0  0  0  0  0  0  0  0  0
    1.3402    1.1946    0.0855 O   0  0  0  0  0  0  0  0  0  0  0  0
    2.2501    1.3502   -0.2132 H   0  0  0  0  0  0  0  0  0  0  0  0
   -0.4788    0.0014    1.5199 H   0  0  0  0  0  0  0  0  0  0  0  0
   -0.4722   -1.4914    0.5534 H   0  0  0  0  0  0  0  0  0  0  0  0
   -1.2029    1.3027   -0.4592 H   0  0  0  0  0  0  0  0  0  0  0  0
   -1.2039   -0.1666   -1.4404 H   0  0  0  0  0  0  0  0  0  0  0  0
   -2.9579    0.3007    1.0201 H   0  0  0  0  0  0  0  0  0  0  0  0
   -2.9633   -1.1527    0.0200 H   0  0  0  0  0  0  0  0  0  0  0  0
   -3.5021    0.3851   -0.6562 H   0  0  0  0  0  0  0  0  0  0  0  0
  1  2  1  0
  1 12  1  0
  1 13  1  0
  1 14  1  0
  2  3  1  0
  2 10  1  0
  2 11  1  0
  3  4  1  0
  3  8  1  0
  3  9  1  0
  4  5  2  0
  4  6  1  0
  6  7  1  0
M  END
$$$$

     RDKit          3D

 14 13  0  0  0  0  0  0  0  0999 V2000
   -2.1022   -0.6311   -0.3950 C   0  0  0  0  0  0  0  0  0  0  0  0
   -1.4617    0.7201   -0.1055 C   0  0  0  0  0  0  0  0  0  0  0  0
   -0.2618    0.5972    0.8470 C   0  0  0  0  0  0  0  0  0  0  0  0
    0.8754   -0.1060    0.1548 C   0  0  0  0  0  0  0  0  0  0  0  0
    1.0926   -1.2874    0.1691 O   0  0  0  0  0  0  0  0  0  0  0  0
    1.6415    0.7538   -0.5323 O   0  0  0  0  0  0  0  0  0  0  0  0
    2.3505    0.2817   -0.9966 H   0  0  0  0  0  0  0  0  0  0  0  0
    0.0751    1.5911    1.1413 H   0  0  0  0  0  0  0  0  0  0  0  0
   -0.5491    0.0232    1.7279 H   0  0  0  0  0  0  0  0  0  0  0  0
   -2.1986    1.3822    0.3535 H   0  0  0  0  0  0  0  0  0  0  0  0
   -1.1303    1.1838   -1.0369 H   0  0  0  0  0  0  0  0  0  0  0  0
   -1.3719   -1.3245   -0.8041 H   0  0  0  0  0  0  0  0  0  0  0  0
   -2.9136   -0.5197   -1.1103 H   0  0  0  0  0  0  0  0  0  0  0  0
   -2.5048   -1.0638    0.5179 H   0  0  0  0  0  0  0  0  0  0  0  0
  1  2  1  0
  1 12  1  0
  1 13  1  0
  1 14  1  0
  2  3  1  0
  2 10  1  0
  2 11  1  0
  3  4  1  0
  3  8  1  0
  3  9  1  0
  4  5  2  0
  4  6  1  0
  6  7  1  0
M  END
$$$$

     RDKit          3D

 14 13  0  0  0  0  0  0  0  0999 V2000
   -2.1083   -0.6273   -0.3769 C   0  0  0  0  0  0  0  0  0  0  0  0
   -1.4579    0.7265   -0.1243 C   0  0  0  0  0  0  0  0  0  0  0  0
   -0.2583    0.6190    0.8305 C   0  0  0  0  0  0  0  0  0  0  0  0
    0.8736   -0.1080    0.1545 C   0  0  0  0  0  0  0  0  0  0  0  0
    1.0644   -1.2940    0.1704 O   0  0  0  0  0  0  0  0  0  0  0  0
    1.6687    0.7349   -0.5203 O   0  0  0  0  0  0  0  0  0  0  0  0
    2.3742    0.2470   -0.9735 H   0  0  0  0  0  0  0  0  0  0  0  0
    0.0855    1.6170    1.1018 H   0  0  0  0  0  0  0  0  0  0  0  0
   -0.5499    0.0671    1.7241 H   0  0  0  0  0  0  0  0  0  0  0  0
   -2.1895    1.4061    0.3173 H   0  0  0  0  0  0  0  0  0  0  0  0
   -1.1240    1.1630   -1.0680 H   0  0  0  0  0  0  0  0  0  0  0  0
   -2.9198   -0.5300   -1.0942 H   0  0  0  0  0  0  0  0  0  0  0  0
   -2.5126   -1.0322    0.5480 H   0  0  0  0  0  0  0  0  0  0  0  0
   -1.3829   -1.3362   -0.7675 H   0  0  0  0  0  0  0  0  0  0  0  0
  1  2  1  0
  1 12  1  0
  1 13  1  0
  1 14  1  0
  2  3  1  0
  2 10  1  0
  2 11  1  0
  3  4  1  0
  3  8  1  0
  3  9  1  0
  4  5  2  0
  4  6  1  0
  6  7  1  0
M  END
$$$$

     RDKit          3D

 14 13  0  0  0  0  0  0  0  0999 V2000
   -2.1293   -0.6156   -0.3384 C   0  0  0  0  0  0  0  0  0  0  0  0
   -1.4507    0.7361   -0.1600 C   0  0  0  0  0  0  0  0  0  0  0  0
   -0.2497    0.6573    0.7963 C   0  0  0  0  0  0  0  0  0  0  0  0
    0.8724   -0.1127    0.1524 C   0  0  0  0  0  0  0  0  0  0  0  0
    1.0134   -1.3057    0.1672 O   0  0  0  0  0  0  0  0  0  0  0  0
    1.7231    0.6992   -0.4920 O   0  0  0  0  0  0  0  0  0  0  0  0
    2.4225    0.1846   -0.9249 H   0  0  0  0  0  0  0  0  0  0  0  0
    0.1064    1.6619    1.0235 H   0  0  0  0  0  0  0  0  0  0  0  0
   -0.5471    0.1487    1.7135 H   0  0  0  0  0  0  0  0  0  0  0  0
   -2.1670    1.4530    0.2466 H   0  0  0  0  0  0  0  0  0  0  0  0
   -1.1123    1.1152   -1.1267 H   0  0  0  0  0  0  0  0  0  0  0  0
   -2.5467   -0.9579    0.6058 H   0  0  0  0  0  0  0  0  0  0  0  0
   -1.4176   -1.3611   -0.6834 H   0  0  0  0  0  0  0  0  0  0  0  0
   -2.9353   -0.5419   -1.0645 H   0  0  0  0  0  0  0  0  0  0  0  0
  1  2  1  0
  1 12  1  0
  1 13  1  0
  1 14  1  0
  2  3  1  0
  2 10  1  0
  2 11  1  0
  3  4  1  0
  3  8  1  0
  3  9  1  0
  4  5  2  0
  4  6  1  0
  6  7  1  0
M  END
$$$$

     RDKit          3D

 14 13  0  0  0  0  0  0  0  0999 V2000
   -2.1216   -0.6176    0.3424 C   0  0  0  0  0  0  0  0  0  0  0  0
   -1.4482    0.7358    0.1596 C   0  0  0  0  0  0  0  0  0  0  0  0
   -0.2511    0.6556   -0.8022 C   0  0  0  0  0  0  0  0  0  0  0  0
    0.8711   -0.1114   -0.1547 C   0  0  0  0  0  0  0  0  0  0  0  0
    1.0142   -1.3044   -0.1686 O   0  0  0  0  0  0  0  0  0  0  0  0
    1.7158    0.7010    0.4965 O   0  0  0  0  0  0  0  0  0  0  0  0
    2.4105    0.1846    0.9352 H   0  0  0  0  0  0  0  0  0  0  0  0
   -0.5512    0.1410   -1.7148 H   0  0  0  0  0  0  0  0  0  0  0  0
    0.1021    1.6591   -1.0381 H   0  0  0  0  0  0  0  0  0  0  0  0
   -1.1078    1.1173    1.1245 H   0  0  0  0  0  0  0  0  0  0  0  0
   -2.1676    1.4498   -0.2462 H   0  0  0  0  0  0  0  0  0  0  0  0
   -1.4058   -1.3589    0.6874 H   0  0  0  0  0  0  0  0  0  0  0  0
   -2.5382   -0.9624   -0.6008 H   0  0  0  0  0  0  0  0  0  0  0  0
   -2.9276   -0.5463    1.0690 H   0  0  0  0  0  0  0  0  0  0  0  0
  1  2  1  0
  1 12  1  0
  1 13  1  0
  1 14  1  0
  2  3  1  0
  2 10  1  0
  2 11  1  0
  3  4  1  0
  3  8  1  0
  3  9  1  0
  4  5  2  0
  4  6  1  0
  6  7  1  0
M  END
$$$$

     RDKit          3D

 14 13  0  0  0  0  0  0  0  0999 V2000
   -2.7846   -0.0844   -0.0030 C   0  0  0  0  0  0  0  0  0  0  0  0
   -1.3538    0.2322    0.4108 C   0  0  0  0  0  0  0  0  0  0  0  0
   -0.3337   -0.4441   -0.5119 C   0  0  0  0  0  0  0  0  0  0  0  0
    1.0717   -0.1209   -0.0782 C   0  0  0  0  0  0  0  0  0  0  0  0
    1.9089   -0.9168    0.2513 O   0  0  0  0  0  0  0  0  0  0  0  0
    1.3068    1.1994   -0.0936 O   0  0  0  0  0  0  0  0  0  0  0  0
    2.2132    1.3845    0.1984 H   0  0  0  0  0  0  0  0  0  0  0  0
   -0.4614   -1.5273   -0.5026 H   0  0  0  0  0  0  0  0  0  0  0  0
   -0.4653   -0.0797   -1.5325 H   0  0  0  0  0  0  0  0  0  0  0  0
   -1.1872   -0.1109    1.4345 H   0  0  0  0  0  0  0  0  0  0  0  0
   -1.1918    1.3113    0.3865 H   0  0  0  0  0  0  0  0  0  0  0  0
   -2.9715   -1.1542    0.0512 H   0  0  0  0  0  0  0  0  0  0  0  0
   -2.9704    0.2440   -1.0231 H   0  0  0  0  0  0  0  0  0  0  0  0
   -3.4882    0.4176    0.6568 H   0  0  0  0  0  0  0  0  0  0  0  0
  1  2  1  0
  1 12  1  0
  1 13  1  0
  1 14  1  0
  2  3  1  0
  2 10  1  0
  2 11  1  0
  3  4  1  0
  3  8  1  0
  3  9  1  0
  4  5  2  0
  4  6  1  0
  6  7  1  0
M  END
$$$$

     RDKit          3D

 14 13  0  0  0  0  0  0  0  0999 V2000
   -2.1673   -0.5952    0.2624 C   0  0  0  0  0  0  0  0  0  0  0  0
   -1.4458    0.7449    0.2201 C   0  0  0  0  0  0  0  0  0  0  0  0
   -0.2323    0.7261   -0.7239 C   0  0  0  0  0  0  0  0  0  0  0  0
    0.8718   -0.1187   -0.1434 C   0  0  0  0  0  0  0  0  0  0  0  0
    0.9255   -1.3189   -0.1547 O   0  0  0  0  0  0  0  0  0  0  0  0
    1.8214    0.6328    0.4318 O   0  0  0  0  0  0  0  0  0  0  0  0
    2.5114    0.0723    0.8211 H   0  0  0  0  0  0  0  0  0  0  0  0
   -0.5287    0.3044   -1.6850 H   0  0  0  0  0  0  0  0  0  0  0  0
    0.1438    1.7393   -0.8624 H   0  0  0  0  0  0  0  0  0  0  0  0
   -1.1114    1.0202    1.2229 H   0  0  0  0  0  0  0  0  0  0  0  0
   -2.1363    1.5176   -0.1235 H   0  0  0  0  0  0  0  0  0  0  0  0
   -2.9759   -0.5648    0.9883 H   0  0  0  0  0  0  0  0  0  0  0  0
   -1.4812   -1.3919    0.5373 H   0  0  0  0  0  0  0  0  0  0  0  0
   -2.5898   -0.8283   -0.7125 H   0  0  0  0  0  0  0  0  0  0  0  0
  1  2  1  0
  1 12  1  0
  1 13  1  0
  1 14  1  0
  2  3  1  0
  2 10  1  0
  2 11  1  0
  3  4  1  0
  3  8  1  0
  3  9  1  0
  4  5  2  0
  4  6  1  0
  6  7  1  0
M  END
$$$$

     RDKit          3D

 14 13  0  0  0  0  0  0  0  0999 V2000
   -2.7841   -0.1193    0.0027 C   0  0  0  0  0  0  0  0  0  0  0  0
   -1.3645    0.3007   -0.3544 C   0  0  0  0  0  0  0  0  0  0  0  0
   -0.3310   -0.5138    0.4270 C   0  0  0  0  0  0  0  0  0  0  0  0
    1.0764   -0.1233    0.0632 C   0  0  0  0  0  0  0  0  0  0  0  0
    1.9587   -0.8833   -0.2343 O   0  0  0  0  0  0  0  0  0  0  0  0
    1.2632    1.2037    0.1111 O   0  0  0  0  0  0  0  0  0  0  0  0
    2.1749    1.4204   -0.1387 H   0  0  0  0  0  0  0  0  0  0  0  0
   -0.4655   -0.3355    1.4970 H   0  0  0  0  0  0  0  0  0  0  0  0
   -0.4499   -1.5809    0.2347 H   0  0  0  0  0  0  0  0  0  0  0  0
   -1.2236    1.3597   -0.1337 H   0  0  0  0  0  0  0  0  0  0  0  0
   -1.2031    0.1507   -1.4243 H   0  0  0  0  0  0  0  0  0  0  0  0
   -2.9456   -1.1676   -0.2432 H   0  0  0  0  0  0  0  0  0  0  0  0
   -3.5033    0.4801   -0.5514 H   0  0  0  0  0  0  0  0  0  0  0  0
   -2.9720    0.0181    1.0646 H   0  0  0  0  0  0  0  0  0  0  0  0
  1  2  1  0
  1 12  1  0
  1 13  1  0
  1 14  1  0
  2  3  1  0
  2 10  1  0
  2 11  1  0
  3  4  1  0
  3  8  1  0
  3  9  1  0
  4  5  2  0
  4  6  1  0
  6  7  1  0
M  END
$$$$

     RDKit          3D

 14 13  0  0  0  0  0  0  0  0999 V2000
   -2.0451   -0.6829    0.4789 C   0  0  0  0  0  0  0  0  0  0  0  0
   -1.5270    0.6692   -0.0016 C   0  0  0  0  0  0  0  0  0  0  0  0
   -0.2784    0.5357   -0.8892 C   0  0  0  0  0  0  0  0  0  0  0  0
    0.9143    0.0959   -0.0759 C   0  0  0  0  0  0  0  0  0  0  0  0
    1.5754    0.7927    0.6462 O   0  0  0  0  0  0  0  0  0  0  0  0
    1.1763   -1.2078   -0.2398 O   0  0  0  0  0  0  0  0  0  0  0  0
    1.9468   -1.4734    0.2848 H   0  0  0  0  0  0  0  0  0  0  0  0
   -0.4550   -0.2039   -1.6720 H   0  0  0  0  0  0  0  0  0  0  0  0
   -0.0471    1.5054   -1.3375 H   0  0  0  0  0  0  0  0  0  0  0  0
   -1.2847    1.2980    0.8562 H   0  0  0  0  0  0  0  0  0  0  0  0
   -2.3123    1.1712   -0.5695 H   0  0  0  0  0  0  0  0  0  0  0  0
   -2.9417   -0.5520    1.0854 H   0  0  0  0  0  0  0  0  0  0  0  0
   -1.3000   -1.1979    1.0801 H   0  0  0  0  0  0  0  0  0  0  0  0
   -2.2961   -1.3229   -0.3659 H   0  0  0  0  0  0  0  0  0  0  0  0
  1  2  1  0
  1 12  1  0
  1 13  1  0
  1 14  1  0
  2  3  1  0
  2 10  1  0
  2 11  1  0
  3  4  1  0
  3  8  1  0
  3  9  1  0
  4  5  2  0
  4  6  1  0
  6  7  1  0
M  END
$$$$

     RDKit          3D

 14 13  0  0  0  0  0  0  0  0999 V2000
   -2.7884   -0.1295    0.0083 C   0  0  0  0  0  0  0  0  0  0  0  0
   -1.3753    0.3221   -0.3318 C   0  0  0  0  0  0  0  0  0  0  0  0
   -0.3309   -0.5349    0.3863 C   0  0  0  0  0  0  0  0  0  0  0  0
    1.0811   -0.1227    0.0529 C   0  0  0  0  0  0  0  0  0  0  0  0
    1.9781   -0.8771   -0.2183 O   0  0  0  0  0  0  0  0  0  0  0  0
    1.2544    1.2073    0.1121 O   0  0  0  0  0  0  0  0  0  0  0  0
    2.1710    1.4460   -0.1003 H   0  0  0  0  0  0  0  0  0  0  0  0
   -0.4560   -0.4311    1.4688 H   0  0  0  0  0  0  0  0  0  0  0  0
   -0.4531   -1.5884    0.1302 H   0  0  0  0  0  0  0  0  0  0  0  0
   -1.2387    1.3684   -0.0535 H   0  0  0  0  0  0  0  0  0  0  0  0
   -1.2220    0.2384   -1.4093 H   0  0  0  0  0  0  0  0  0  0  0  0
   -3.5191    0.4945   -0.5011 H   0  0  0  0  0  0  0  0  0  0  0  0
   -2.9694   -0.0706    1.0807 H   0  0  0  0  0  0  0  0  0  0  0  0
   -2.9456   -1.1585   -0.3082 H   0  0  0  0  0  0  0  0  0  0  0  0
  1  2  1  0
  1 12  1  0
  1 13  1  0
  1 14  1  0
  2  3  1  0
  2 10  1  0
  2 11  1  0
  3  4  1  0
  3  8  1  0
  3  9  1  0
  4  5  2  0
  4  6  1  0
  6  7  1  0
M  END
$$$$

     RDKit          3D

 14 13  0  0  0  0  0  0  0  0999 V2000
   -2.0374   -0.6771    0.4490 C   0  0  0  0  0  0  0  0  0  0  0  0
   -1.4942    0.6851    0.0417 C   0  0  0  0  0  0  0  0  0  0  0  0
   -0.2783    0.5549   -0.8863 C   0  0  0  0  0  0  0  0  0  0  0  0
    0.9120    0.0888   -0.0860 C   0  0  0  0  0  0  0  0  0  0  0  0
    1.5883    0.7802    0.6259 O   0  0  0  0  0  0  0  0  0  0  0  0
    1.1309   -1.2257   -0.2285 O   0  0  0  0  0  0  0  0  0  0  0  0
    1.8789   -1.5113    0.3181 H   0  0  0  0  0  0  0  0  0  0  0  0
   -0.4721   -0.1572   -1.6881 H   0  0  0  0  0  0  0  0  0  0  0  0
   -0.0466    1.5290   -1.3134 H   0  0  0  0  0  0  0  0  0  0  0  0
   -1.1900    1.2494    0.9255 H   0  0  0  0  0  0  0  0  0  0  0  0
   -2.2767    1.2521   -0.4653 H   0  0  0  0  0  0  0  0  0  0  0  0
   -2.3519   -1.2398   -0.4268 H   0  0  0  0  0  0  0  0  0  0  0  0
   -2.8935   -0.5587    1.1099 H   0  0  0  0  0  0  0  0  0  0  0  0
   -1.2798   -1.2573    0.9726 H   0  0  0  0  0  0  0  0  0  0  0  0
  1  2  1  0
  1 12  1  0
  1 13  1  0
  1 14  1  0
  2  3  1  0
  2 10  1  0
  2 11  1  0
  3  4  1  0
  3  8  1  0
  3  9  1  0
  4  5  2  0
  4  6  1  0
  6  7  1  0
M  END
$$$$

     RDKit          3D

 14 13  0  0  0  0  0  0  0  0999 V2000
   -2.0871   -0.6598   -0.4146 C   0  0  0  0  0  0  0  0  0  0  0  0
   -1.4851    0.6964   -0.0703 C   0  0  0  0  0  0  0  0  0  0  0  0
   -0.2629    0.5920    0.8560 C   0  0  0  0  0  0  0  0  0  0  0  0
    0.9253    0.0788    0.0865 C   0  0  0  0  0  0  0  0  0  0  0  0
    1.6482    0.7446   -0.6049 O   0  0  0  0  0  0  0  0  0  0  0  0
    1.0910   -1.2434    0.2278 O   0  0  0  0  0  0  0  0  0  0  0  0
    1.8358   -1.5500   -0.3138 H   0  0  0  0  0  0  0  0  0  0  0  0
   -0.0171    1.5886    1.2215 H   0  0  0  0  0  0  0  0  0  0  0  0
   -0.4710   -0.0759    1.6919 H   0  0  0  0  0  0  0  0  0  0  0  0
   -2.2405    1.3063    0.4274 H   0  0  0  0  0  0  0  0  0  0  0  0
   -1.1871    1.2128   -0.9867 H   0  0  0  0  0  0  0  0  0  0  0  0
   -1.3655   -1.2950   -0.9204 H   0  0  0  0  0  0  0  0  0  0  0  0
   -2.9436   -0.5290   -1.0719 H   0  0  0  0  0  0  0  0  0  0  0  0
   -2.4176   -1.1708    0.4867 H   0  0  0  0  0  0  0  0  0  0  0  0
  1  2  1  0
  1 12  1  0
  1 13  1  0
  1 14  1  0
  2  3  1  0
  2 10  1  0
  2 11  1  0
  3  4  1  0
  3  8  1  0
  3  9  1  0
  4  5  2  0
  4  6  1  0
  6  7  1  0
M  END
$$$$

     RDKit          3D

 14 13  0  0  0  0  0  0  0  0999 V2000
   -2.0133   -0.1352   -0.8882 C   0  0  0  0  0  0  0  0  0  0  0  0
   -1.5670    0.0195    0.5607 C   0  0  0  0  0  0  0  0  0  0  0  0
   -0.2503    0.7901    0.6813 C   0  0  0  0  0  0  0  0  0  0  0  0
    0.9280    0.0943    0.0427 C   0  0  0  0  0  0  0  0  0  0  0  0
    1.8128    0.6479   -0.5539 O   0  0  0  0  0  0  0  0  0  0  0  0
    0.9190   -1.2322    0.2415 O   0  0  0  0  0  0  0  0  0  0  0  0
    1.7137   -1.6396   -0.1370 H   0  0  0  0  0  0  0  0  0  0  0  0
   -0.3407    1.7852    0.2419 H   0  0  0  0  0  0  0  0  0  0  0  0
    0.0068    0.9086    1.7380 H   0  0  0  0  0  0  0  0  0  0  0  0
   -1.4504   -0.9670    1.0077 H   0  0  0  0  0  0  0  0  0  0  0  0
   -2.3290    0.5568    1.1295 H   0  0  0  0  0  0  0  0  0  0  0  0
   -2.9605   -0.6693   -0.9407 H   0  0  0  0  0  0  0  0  0  0  0  0
   -1.2707   -0.6969   -1.4513 H   0  0  0  0  0  0  0  0  0  0  0  0
   -2.1442    0.8373   -1.3549 H   0  0  0  0  0  0  0  0  0  0  0  0
  1  2  1  0
  1 12  1  0
  1 13  1  0
  1 14  1  0
  2  3  1  0
  2 10  1  0
  2 11  1  0
  3  4  1  0
  3  8  1  0
  3  9  1  0
  4  5  2  0
  4  6  1  0
  6  7  1  0
M  END
$$$$

     RDKit          3D

 14 13  0  0  0  0  0  0  0  0999 V2000
   -2.7921   -0.1886   -0.0002 C   0  0  0  0  0  0  0  0  0  0  0  0
   -1.3993    0.4224   -0.0893 C   0  0  0  0  0  0  0  0  0  0  0  0
   -0.3206   -0.6394    0.1013 C   0  0  0  0  0  0  0  0  0  0  0  0
    1.0921   -0.1219    0.0121 C   0  0  0  0  0  0  0  0  0  0  0  0
    2.0689   -0.8191   -0.0668 O   0  0  0  0  0  0  0  0  0  0  0  0
    1.1742    1.2141    0.0418 O   0  0  0  0  0  0  0  0  0  0  0  0
    2.1027    1.4911   -0.0092 H   0  0  0  0  0  0  0  0  0  0  0  0
   -0.4233   -1.1081    1.0845 H   0  0  0  0  0  0  0  0  0  0  0  0
   -0.4242   -1.4356   -0.6396 H   0  0  0  0  0  0  0  0  0  0  0  0
   -1.2870    1.1941    0.6732 H   0  0  0  0  0  0  0  0  0  0  0  0
   -1.2696    0.8988   -1.0625 H   0  0  0  0  0  0  0  0  0  0  0  0
   -2.9424   -0.6606    0.9683 H   0  0  0  0  0  0  0  0  0  0  0  0
   -2.9312   -0.9416   -0.7729 H   0  0  0  0  0  0  0  0  0  0  0  0
   -3.5514    0.5786   -0.1289 H   0  0  0  0  0  0  0  0  0  0  0  0
  1  2  1  0
  1 12  1  0
  1 13  1  0
  1 14  1  0
  2  3  1  0
  2 10  1  0
  2 11  1  0
  3  4  1  0
  3  8  1  0
  3  9  1  0
  4  5  2  0
  4  6  1  0
  6  7  1  0
M  END
$$$$

     RDKit          3D

 14 13  0  0  0  0  0  0  0  0999 V2000
   -2.7923   -0.1918    0.0078 C   0  0  0  0  0  0  0  0  0  0  0  0
   -1.4005    0.4273    0.0395 C   0  0  0  0  0  0  0  0  0  0  0  0
   -0.3198   -0.6446   -0.0599 C   0  0  0  0  0  0  0  0  0  0  0  0
    1.0929   -0.1218   -0.0065 C   0  0  0  0  0  0  0  0  0  0  0  0
    2.0740   -0.8162    0.0385 O   0  0  0  0  0  0  0  0  0  0  0  0
    1.1694    1.2147   -0.0204 O   0  0  0  0  0  0  0  0  0  0  0  0
    2.0978    1.4949    0.0118 H   0  0  0  0  0  0  0  0  0  0  0  0
   -0.4254   -1.3748    0.7463 H   0  0  0  0  0  0  0  0  0  0  0  0
   -0.4192   -1.1974   -0.9984 H   0  0  0  0  0  0  0  0  0  0  0  0
   -1.2702    0.9874    0.9667 H   0  0  0  0  0  0  0  0  0  0  0  0
   -1.2907    1.1295   -0.7880 H   0  0  0  0  0  0  0  0  0  0  0  0
   -2.9449   -0.7476   -0.9148 H   0  0  0  0  0  0  0  0  0  0  0  0
   -3.5527    0.5824    0.0711 H   0  0  0  0  0  0  0  0  0  0  0  0
   -2.9276   -0.8741    0.8442 H   0  0  0  0  0  0  0  0  0  0  0  0
  1  2  1  0
  1 12  1  0
  1 13  1  0
  1 14  1  0
  2  3  1  0
  2 10  1  0
  2 11  1  0
  3  4  1  0
  3  8  1  0
  3  9  1  0
  4  5  2  0
  4  6  1  0
  6  7  1  0
M  END
$$$$

     RDKit          3D

 14 13  0  0  0  0  0  0  0  0999 V2000
   -2.3026   -0.4978   -0.0959 C   0  0  0  0  0  0  0  0  0  0  0  0
   -1.4475    0.6456    0.4304 C   0  0  0  0  0  0  0  0  0  0  0  0
   -0.1933    0.8904   -0.4239 C   0  0  0  0  0  0  0  0  0  0  0  0
    0.9918    0.0290   -0.0614 C   0  0  0  0  0  0  0  0  0  0  0  0
    2.0997    0.4489    0.1469 O   0  0  0  0  0  0  0  0  0  0  0  0
    0.7164   -1.2816   -0.0107 O   0  0  0  0  0  0  0  0  0  0  0  0
    1.5157   -1.7793    0.2276 H   0  0  0  0  0  0  0  0  0  0  0  0
   -0.4293    0.6932   -1.4738 H   0  0  0  0  0  0  0  0  0  0  0  0
    0.1302    1.9297   -0.3336 H   0  0  0  0  0  0  0  0  0  0  0  0
   -1.1573    0.4365    1.4616 H   0  0  0  0  0  0  0  0  0  0  0  0
   -2.0378    1.5635    0.4325 H   0  0  0  0  0  0  0  0  0  0  0  0
   -3.1272   -0.6967    0.5855 H   0  0  0  0  0  0  0  0  0  0  0  0
   -1.7061   -1.4000   -0.1961 H   0  0  0  0  0  0  0  0  0  0  0  0
   -2.7171   -0.2458   -1.0685 H   0  0  0  0  0  0  0  0  0  0  0  0
  1  2  1  0
  1 12  1  0
  1 13  1  0
  1 14  1  0
  2  3  1  0
  2 10  1  0
  2 11  1  0
  3  4  1  0
  3  8  1  0
  3  9  1  0
  4  5  2  0
  4  6  1  0
  6  7  1  0
M  END
$$$$
