
     RDKit          3D

 39 42  0  0  0  0  0  0  0  0999 V2000
    4.4247    2.2352   -1.0734 C   0  0  0  0  0  0  0  0  0  0  0  0
    3.8308    2.3117   -1.9816 H   0  0  0  0  0  0  0  0  0  0  0  0
    5.1128    3.0750   -1.0344 H   0  0  0  0  0  0  0  0  0  0  0  0
    4.9941    1.3097   -1.1008 H   0  0  0  0  0  0  0  0  0  0  0  0
    3.5235    2.2405    0.1588 C   0  0  1  0  0  0  0  0  0  0  0  0
    2.5872    1.1432    0.0811 N   0  0  0  0  0  0  0  0  0  0  0  0
    2.8594   -0.1758    0.0420 C   0  0  0  0  0  0  0  0  0  0  0  0
    4.0610   -0.7652    0.0455 N   0  0  0  0  0  0  0  0  0  0  0  0
    3.9916   -2.0744   -0.0366 C   0  0  0  0  0  0  0  0  0  0  0  0
    2.9128   -2.8322   -0.1701 N   0  0  0  0  0  0  0  0  0  0  0  0
    1.7120   -2.2542   -0.1895 C   0  0  0  0  0  0  0  0  0  0  0  0
    0.6448   -3.0586   -0.3666 N   0  0  0  0  0  0  0  0  0  0  0  0
   -0.2465   -2.6571   -0.6012 H   0  0  0  0  0  0  0  0  0  0  0  0
    0.8338   -4.0188   -0.5979 H   0  0  0  0  0  0  0  0  0  0  0  0
    1.6179   -0.8569   -0.0229 C   0  0  0  0  0  0  0  0  0  0  0  0
    0.6513    0.1894    0.0080 C   0  0  0  0  0  0  0  0  0  0  0  0
    1.2675    1.3615    0.0574 N   0  0  0  0  0  0  0  0  0  0  0  0
   -0.7874    0.1363    0.0118 C   0  0  0  0  0  0  0  0  0  0  0  0
   -1.6628   -0.8494    0.4086 C   0  0  0  0  0  0  0  0  0  0  0  0
   -2.9732   -0.3397    0.2306 C   0  0  0  0  0  0  0  0  0  0  0  0
   -4.2484   -0.8656    0.4521 C   0  0  0  0  0  0  0  0  0  0  0  0
   -5.3425   -0.0785    0.1602 C   0  0  0  0  0  0  0  0  0  0  0  0
   -5.1901    1.2222   -0.3495 C   0  0  0  0  0  0  0  0  0  0  0  0
   -3.9441    1.7589   -0.5741 C   0  0  0  0  0  0  0  0  0  0  0  0
   -2.8353    0.9745   -0.2810 C   0  0  0  0  0  0  0  0  0  0  0  0
   -1.5024    1.2303   -0.4005 N   0  0  0  0  0  0  0  0  0  0  0  0
   -1.0710    2.0920   -0.6878 H   0  0  0  0  0  0  0  0  0  0  0  0
   -3.8326    2.7592   -0.9638 H   0  0  0  0  0  0  0  0  0  0  0  0
   -6.0848    1.7865   -0.5573 H   0  0  0  0  0  0  0  0  0  0  0  0
   -6.6228   -0.5192    0.3486 O   0  0  0  0  0  0  0  0  0  0  0  0
   -6.6052   -1.4143    0.7066 H   0  0  0  0  0  0  0  0  0  0  0  0
   -4.3715   -1.8660    0.8453 H   0  0  0  0  0  0  0  0  0  0  0  0
   -1.4120   -1.7950    0.8470 H   0  0  0  0  0  0  0  0  0  0  0  0
    4.9350   -2.6049   -0.0186 H   0  0  0  0  0  0  0  0  0  0  0  0
    4.3398    2.1286    1.4438 C   0  0  0  0  0  0  0  0  0  0  0  0
    3.6849    2.1317    2.3123 H   0  0  0  0  0  0  0  0  0  0  0  0
    5.0278    2.9657    1.5215 H   0  0  0  0  0  0  0  0  0  0  0  0
    4.9070    1.2014    1.4322 H   0  0  0  0  0  0  0  0  0  0  0  0
    2.9080    3.1467    0.1773 H   0  0  0  0  0  0  0  0  0  0  0  0
  1  2  1  0
  1  3  1  0
  1  4  1  0
  1  5  1  0
  5  6  1  0
  5 35  1  0
  5 39  1  1
  6  7  1  0
  6 17  1  0
  7  8  2  0
  7 15  1  0
  8  9  1  0
  9 10  2  0
  9 34  1  0
 10 11  1  0
 11 12  1  0
 11 15  2  0
 12 13  1  0
 12 14  1  0
 15 16  1  0
 16 17  2  0
 16 18  1  0
 18 19  2  0
 18 26  1  0
 19 20  1  0
 19 33  1  0
 20 21  2  0
 20 25  1  0
 21 22  1  0
 21 32  1  0
 22 23  2  0
 22 30  1  0
 23 24  1  0
 23 29  1  0
 24 25  2  0
 24 28  1  0
 25 26  1  0
 26 27  1  0
 30 31  1  0
 35 36  1  0
 35 37  1  0
 35 38  1  0
M  END
$$$$

     RDKit          3D

 39 42  0  0  0  0  0  0  0  0999 V2000
   -3.4743   -2.8653    1.4556 C   0  0  0  0  0  0  0  0  0  0  0  0
   -2.4723   -3.2855    1.4981 H   0  0  0  0  0  0  0  0  0  0  0  0
   -3.6091   -2.1969    2.3027 H   0  0  0  0  0  0  0  0  0  0  0  0
   -4.2011   -3.6696    1.5258 H   0  0  0  0  0  0  0  0  0  0  0  0
   -3.6581   -2.1047    0.1444 C   0  0  1  0  0  0  0  0  0  0  0  0
   -2.6942   -1.0321    0.0671 N   0  0  0  0  0  0  0  0  0  0  0  0
   -2.9521    0.2885    0.0401 C   0  0  0  0  0  0  0  0  0  0  0  0
   -4.1513    0.8792    0.0501 N   0  0  0  0  0  0  0  0  0  0  0  0
   -4.0748    2.1892   -0.0203 C   0  0  0  0  0  0  0  0  0  0  0  0
   -2.9910    2.9415   -0.1473 N   0  0  0  0  0  0  0  0  0  0  0  0
   -1.7926    2.3583   -0.1735 C   0  0  0  0  0  0  0  0  0  0  0  0
   -0.7217    3.1603   -0.3419 N   0  0  0  0  0  0  0  0  0  0  0  0
    0.1663    2.7573   -0.5862 H   0  0  0  0  0  0  0  0  0  0  0  0
   -0.9082    4.1230   -0.5656 H   0  0  0  0  0  0  0  0  0  0  0  0
   -1.7052    0.9592   -0.0206 C   0  0  0  0  0  0  0  0  0  0  0  0
   -0.7497   -0.0983    0.0008 C   0  0  0  0  0  0  0  0  0  0  0  0
   -1.3756   -1.2649    0.0415 N   0  0  0  0  0  0  0  0  0  0  0  0
    0.6894   -0.0583    0.0040 C   0  0  0  0  0  0  0  0  0  0  0  0
    1.5732    0.9175    0.4064 C   0  0  0  0  0  0  0  0  0  0  0  0
    2.8792    0.3972    0.2266 C   0  0  0  0  0  0  0  0  0  0  0  0
    4.1588    0.9103    0.4526 C   0  0  0  0  0  0  0  0  0  0  0  0
    5.2461    0.1150    0.1577 C   0  0  0  0  0  0  0  0  0  0  0  0
    5.0827   -1.1813   -0.3596 C   0  0  0  0  0  0  0  0  0  0  0  0
    3.8321   -1.7055   -0.5888 C   0  0  0  0  0  0  0  0  0  0  0  0
    2.7301   -0.9128   -0.2925 C   0  0  0  0  0  0  0  0  0  0  0  0
    1.3950   -1.1564   -0.4137 N   0  0  0  0  0  0  0  0  0  0  0  0
    0.9567   -2.0114   -0.7101 H   0  0  0  0  0  0  0  0  0  0  0  0
    3.7123   -2.7026   -0.9844 H   0  0  0  0  0  0  0  0  0  0  0  0
    5.9724   -1.7526   -0.5694 H   0  0  0  0  0  0  0  0  0  0  0  0
    6.5301    0.5429    0.3504 O   0  0  0  0  0  0  0  0  0  0  0  0
    6.5201    1.4360    0.7136 H   0  0  0  0  0  0  0  0  0  0  0  0
    4.2903    1.9074    0.8515 H   0  0  0  0  0  0  0  0  0  0  0  0
    1.3300    1.8632    0.8488 H   0  0  0  0  0  0  0  0  0  0  0  0
   -5.0146    2.7254    0.0034 H   0  0  0  0  0  0  0  0  0  0  0  0
   -3.4993   -3.0245   -1.0635 C   0  0  0  0  0  0  0  0  0  0  0  0
   -2.5031   -3.4598   -1.0637 H   0  0  0  0  0  0  0  0  0  0  0  0
   -3.6384   -2.4667   -1.9867 H   0  0  0  0  0  0  0  0  0  0  0  0
   -4.2351   -3.8225   -1.0236 H   0  0  0  0  0  0  0  0  0  0  0  0
   -4.6375   -1.6152    0.1238 H   0  0  0  0  0  0  0  0  0  0  0  0
  1  2  1  0
  1  3  1  0
  1  4  1  0
  1  5  1  0
  5  6  1  0
  5 35  1  0
  5 39  1  1
  6  7  1  0
  6 17  1  0
  7  8  2  0
  7 15  1  0
  8  9  1  0
  9 10  2  0
  9 34  1  0
 10 11  1  0
 11 12  1  0
 11 15  2  0
 12 13  1  0
 12 14  1  0
 15 16  1  0
 16 17  2  0
 16 18  1  0
 18 19  2  0
 18 26  1  0
 19 20  1  0
 19 33  1  0
 20 21  2  0
 20 25  1  0
 21 22  1  0
 21 32  1  0
 22 23  2  0
 22 30  1  0
 23 24  1  0
 23 29  1  0
 24 25  2  0
 24 28  1  0
 25 26  1  0
 26 27  1  0
 30 31  1  0
 35 36  1  0
 35 37  1  0
 35 38  1  0
M  END
$$$$

     RDKit          3D

 39 42  0  0  0  0  0  0  0  0999 V2000
   -4.5515   -2.1849   -1.0797 C   0  0  0  0  0  0  0  0  0  0  0  0
   -3.9615   -2.3036   -1.9857 H   0  0  0  0  0  0  0  0  0  0  0  0
   -5.2835   -2.9862   -1.0324 H   0  0  0  0  0  0  0  0  0  0  0  0
   -5.0712   -1.2308   -1.1184 H   0  0  0  0  0  0  0  0  0  0  0  0
   -3.6520   -2.2261    0.1528 C   0  0  1  0  0  0  0  0  0  0  0  0
   -2.6556   -1.1836    0.0623 N   0  0  0  0  0  0  0  0  0  0  0  0
   -2.8522    0.1473    0.0017 C   0  0  0  0  0  0  0  0  0  0  0  0
   -4.0135    0.8118    0.0040 N   0  0  0  0  0  0  0  0  0  0  0  0
   -3.8642    2.1133   -0.0841 C   0  0  0  0  0  0  0  0  0  0  0  0
   -2.7393    2.8010   -0.2308 N   0  0  0  0  0  0  0  0  0  0  0  0
   -1.5801    2.1481   -0.2573 C   0  0  0  0  0  0  0  0  0  0  0  0
   -0.4561    2.8942   -0.4314 N   0  0  0  0  0  0  0  0  0  0  0  0
    0.3560    2.4471   -0.8252 H   0  0  0  0  0  0  0  0  0  0  0  0
   -0.6253    3.8506   -0.7012 H   0  0  0  0  0  0  0  0  0  0  0  0
   -1.5711    0.7527   -0.0729 C   0  0  0  0  0  0  0  0  0  0  0  0
   -0.6676   -0.3518   -0.0226 C   0  0  0  0  0  0  0  0  0  0  0  0
   -1.3507   -1.4798    0.0501 N   0  0  0  0  0  0  0  0  0  0  0  0
    0.7722   -0.3343   -0.0129 C   0  0  0  0  0  0  0  0  0  0  0  0
    1.6553   -1.2799   -0.4702 C   0  0  0  0  0  0  0  0  0  0  0  0
    2.9620   -0.7850   -0.2316 C   0  0  0  0  0  0  0  0  0  0  0  0
    4.2429   -1.2829   -0.4799 C   0  0  0  0  0  0  0  0  0  0  0  0
    5.3294   -0.5223   -0.1001 C   0  0  0  0  0  0  0  0  0  0  0  0
    5.1641    0.7268    0.5210 C   0  0  0  0  0  0  0  0  0  0  0  0
    3.9113    1.2380    0.7709 C   0  0  0  0  0  0  0  0  0  0  0  0
    2.8131    0.4780    0.3916 C   0  0  0  0  0  0  0  0  0  0  0  0
    1.4744    0.7388    0.4898 N   0  0  0  0  0  0  0  0  0  0  0  0
    1.0644    1.4967    1.0098 H   0  0  0  0  0  0  0  0  0  0  0  0
    3.7892    2.1983    1.2491 H   0  0  0  0  0  0  0  0  0  0  0  0
    6.0522    1.2724    0.7960 H   0  0  0  0  0  0  0  0  0  0  0  0
    6.6140   -0.9407   -0.3074 O   0  0  0  0  0  0  0  0  0  0  0  0
    6.6047   -1.8072   -0.7304 H   0  0  0  0  0  0  0  0  0  0  0  0
    4.3757   -2.2445   -0.9567 H   0  0  0  0  0  0  0  0  0  0  0  0
    1.3880   -2.2100   -0.9282 H   0  0  0  0  0  0  0  0  0  0  0  0
   -4.7715    2.7027   -0.0631 H   0  0  0  0  0  0  0  0  0  0  0  0
   -4.4598   -2.0552    1.4366 C   0  0  0  0  0  0  0  0  0  0  0  0
   -3.8052   -2.0852    2.3047 H   0  0  0  0  0  0  0  0  0  0  0  0
   -5.1921   -2.8528    1.5239 H   0  0  0  0  0  0  0  0  0  0  0  0
   -4.9767   -1.0990    1.4159 H   0  0  0  0  0  0  0  0  0  0  0  0
   -3.0855   -3.1630    0.1811 H   0  0  0  0  0  0  0  0  0  0  0  0
  1  2  1  0
  1  3  1  0
  1  4  1  0
  1  5  1  0
  5  6  1  0
  5 35  1  0
  5 39  1  1
  6  7  1  0
  6 17  1  0
  7  8  2  0
  7 15  1  0
  8  9  1  0
  9 10  2  0
  9 34  1  0
 10 11  1  0
 11 12  1  0
 11 15  2  0
 12 13  1  0
 12 14  1  0
 15 16  1  0
 16 17  2  0
 16 18  1  0
 18 19  2  0
 18 26  1  0
 19 20  1  0
 19 33  1  0
 20 21  2  0
 20 25  1  0
 21 22  1  0
 21 32  1  0
 22 23  2  0
 22 30  1  0
 23 24  1  0
 23 29  1  0
 24 25  2  0
 24 28  1  0
 25 26  1  0
 26 27  1  0
 30 31  1  0
 35 36  1  0
 35 37  1  0
 35 38  1  0
M  END
$$$$

     RDKit          3D

 39 42  0  0  0  0  0  0  0  0999 V2000
   -3.6895   -2.9860    1.0805 C   0  0  0  0  0  0  0  0  0  0  0  0
   -4.4548   -3.7551    1.0303 H   0  0  0  0  0  0  0  0  0  0  0  0
   -2.7101   -3.4574    1.0993 H   0  0  0  0  0  0  0  0  0  0  0  0
   -3.8232   -2.4189    1.9989 H   0  0  0  0  0  0  0  0  0  0  0  0
   -3.7887   -2.0663   -0.1336 C   0  0  1  0  0  0  0  0  0  0  0  0
   -2.7639   -1.0513   -0.0513 N   0  0  0  0  0  0  0  0  0  0  0  0
   -2.9402    0.2812   -0.0028 C   0  0  0  0  0  0  0  0  0  0  0  0
   -4.0958    0.9528   -0.0124 N   0  0  0  0  0  0  0  0  0  0  0  0
   -3.9330    2.2539    0.0634 C   0  0  0  0  0  0  0  0  0  0  0  0
   -2.8004    2.9305    0.2043 N   0  0  0  0  0  0  0  0  0  0  0  0
   -1.6473    2.2669    0.2386 C   0  0  0  0  0  0  0  0  0  0  0  0
   -0.5160    3.0046    0.4062 N   0  0  0  0  0  0  0  0  0  0  0  0
    0.2885    2.5549    0.8127 H   0  0  0  0  0  0  0  0  0  0  0  0
   -0.6780    3.9656    0.6641 H   0  0  0  0  0  0  0  0  0  0  0  0
   -1.6516    0.8700    0.0678 C   0  0  0  0  0  0  0  0  0  0  0  0
   -0.7648   -0.2491    0.0276 C   0  0  0  0  0  0  0  0  0  0  0  0
   -1.4626   -1.3680   -0.0360 N   0  0  0  0  0  0  0  0  0  0  0  0
    0.6749   -0.2529    0.0184 C   0  0  0  0  0  0  0  0  0  0  0  0
    1.5440   -1.2106    0.4779 C   0  0  0  0  0  0  0  0  0  0  0  0
    2.8578   -0.7357    0.2387 C   0  0  0  0  0  0  0  0  0  0  0  0
    4.1313   -1.2520    0.4882 C   0  0  0  0  0  0  0  0  0  0  0  0
    5.2289   -0.5081    0.1074 C   0  0  0  0  0  0  0  0  0  0  0  0
    5.0821    0.7421   -0.5161 C   0  0  0  0  0  0  0  0  0  0  0  0
    3.8372    1.2712   -0.7674 C   0  0  0  0  0  0  0  0  0  0  0  0
    2.7277    0.5281   -0.3869 C   0  0  0  0  0  0  0  0  0  0  0  0
    1.3932    0.8080   -0.4868 N   0  0  0  0  0  0  0  0  0  0  0  0
    0.9944    1.5736   -1.0043 H   0  0  0  0  0  0  0  0  0  0  0  0
    3.7293    2.2323   -1.2475 H   0  0  0  0  0  0  0  0  0  0  0  0
    5.9781    1.2742   -0.7918 H   0  0  0  0  0  0  0  0  0  0  0  0
    6.5071   -0.9450    0.3158 O   0  0  0  0  0  0  0  0  0  0  0  0
    6.4851   -1.8104    0.7407 H   0  0  0  0  0  0  0  0  0  0  0  0
    4.2498   -2.2146    0.9670 H   0  0  0  0  0  0  0  0  0  0  0  0
    1.2636   -2.1357    0.9384 H   0  0  0  0  0  0  0  0  0  0  0  0
   -4.8336    2.8530    0.0360 H   0  0  0  0  0  0  0  0  0  0  0  0
   -3.6316   -2.8436   -1.4380 C   0  0  0  0  0  0  0  0  0  0  0  0
   -4.3949   -3.6132   -1.5088 H   0  0  0  0  0  0  0  0  0  0  0  0
   -2.6500   -3.3100   -1.4668 H   0  0  0  0  0  0  0  0  0  0  0  0
   -3.7276   -2.1764   -2.2914 H   0  0  0  0  0  0  0  0  0  0  0  0
   -4.7395   -1.5228   -0.1252 H   0  0  0  0  0  0  0  0  0  0  0  0
  1  2  1  0
  1  3  1  0
  1  4  1  0
  1  5  1  0
  5  6  1  0
  5 35  1  0
  5 39  1  6
  6  7  1  0
  6 17  1  0
  7  8  2  0
  7 15  1  0
  8  9  1  0
  9 10  2  0
  9 34  1  0
 10 11  1  0
 11 12  1  0
 11 15  2  0
 12 13  1  0
 12 14  1  0
 15 16  1  0
 16 17  2  0
 16 18  1  0
 18 19  2  0
 18 26  1  0
 19 20  1  0
 19 33  1  0
 20 21  2  0
 20 25  1  0
 21 22  1  0
 21 32  1  0
 22 23  2  0
 22 30  1  0
 23 24  1  0
 23 29  1  0
 24 25  2  0
 24 28  1  0
 25 26  1  0
 26 27  1  0
 30 31  1  0
 35 36  1  0
 35 37  1  0
 35 38  1  0
M  END
$$$$

     RDKit          3D

 39 42  0  0  0  0  0  0  0  0999 V2000
    3.8988    2.7229    1.2709 C   0  0  0  0  0  0  0  0  0  0  0  0
    4.7197    3.4340    1.2890 H   0  0  0  0  0  0  0  0  0  0  0  0
    2.9576    3.2639    1.3299 H   0  0  0  0  0  0  0  0  0  0  0  0
    3.9838    2.0696    2.1364 H   0  0  0  0  0  0  0  0  0  0  0  0
    3.9394    1.9068   -0.0187 C   0  0  1  0  0  0  0  0  0  0  0  0
    2.8463    0.9619   -0.0271 N   0  0  0  0  0  0  0  0  0  0  0  0
    2.9286   -0.3816   -0.0407 C   0  0  0  0  0  0  0  0  0  0  0  0
    4.0253   -1.1477   -0.0487 N   0  0  0  0  0  0  0  0  0  0  0  0
    3.7505   -2.4329   -0.0679 C   0  0  0  0  0  0  0  0  0  0  0  0
    2.5633   -3.0278   -0.0868 N   0  0  0  0  0  0  0  0  0  0  0  0
    1.4654   -2.2743   -0.0792 C   0  0  0  0  0  0  0  0  0  0  0  0
    0.2657   -2.8900   -0.0646 N   0  0  0  0  0  0  0  0  0  0  0  0
   -0.5692   -2.3565   -0.2344 H   0  0  0  0  0  0  0  0  0  0  0  0
    0.2516   -3.8860   -0.1994 H   0  0  0  0  0  0  0  0  0  0  0  0
    1.6021   -0.8729   -0.0469 C   0  0  0  0  0  0  0  0  0  0  0  0
    0.7991    0.2989   -0.0367 C   0  0  0  0  0  0  0  0  0  0  0  0
    1.5668    1.3671   -0.0224 N   0  0  0  0  0  0  0  0  0  0  0  0
   -0.6589    0.3396   -0.0431 C   0  0  0  0  0  0  0  0  0  0  0  0
   -1.5216    0.4188   -1.1014 C   0  0  0  0  0  0  0  0  0  0  0  0
   -2.8395    0.3422   -0.5753 C   0  0  0  0  0  0  0  0  0  0  0  0
   -4.1101    0.3691   -1.1522 C   0  0  0  0  0  0  0  0  0  0  0  0
   -5.2096    0.2669   -0.3245 C   0  0  0  0  0  0  0  0  0  0  0  0
   -5.0652    0.1360    1.0661 C   0  0  0  0  0  0  0  0  0  0  0  0
   -3.8217    0.1056    1.6538 C   0  0  0  0  0  0  0  0  0  0  0  0
   -2.7106    0.2093    0.8273 C   0  0  0  0  0  0  0  0  0  0  0  0
   -1.3748    0.1955    1.1198 N   0  0  0  0  0  0  0  0  0  0  0  0
   -0.9738    0.1638    2.0415 H   0  0  0  0  0  0  0  0  0  0  0  0
   -3.7159    0.0064    2.7235 H   0  0  0  0  0  0  0  0  0  0  0  0
   -5.9622    0.0616    1.6591 H   0  0  0  0  0  0  0  0  0  0  0  0
   -6.4864    0.2859   -0.8124 O   0  0  0  0  0  0  0  0  0  0  0  0
   -6.4624    0.3914   -1.7706 H   0  0  0  0  0  0  0  0  0  0  0  0
   -4.2268    0.4712   -2.2227 H   0  0  0  0  0  0  0  0  0  0  0  0
   -1.2475    0.5267   -2.1318 H   0  0  0  0  0  0  0  0  0  0  0  0
    4.6021   -3.1007   -0.0743 H   0  0  0  0  0  0  0  0  0  0  0  0
    3.8460    2.8029   -1.2506 C   0  0  0  0  0  0  0  0  0  0  0  0
    4.6639    3.5177   -1.2560 H   0  0  0  0  0  0  0  0  0  0  0  0
    2.9013    3.3407   -1.2377 H   0  0  0  0  0  0  0  0  0  0  0  0
    3.8966    2.2064   -2.1585 H   0  0  0  0  0  0  0  0  0  0  0  0
    4.8498    1.2990   -0.0555 H   0  0  0  0  0  0  0  0  0  0  0  0
  1  2  1  0
  1  3  1  0
  1  4  1  0
  1  5  1  0
  5  6  1  0
  5 35  1  0
  5 39  1  6
  6  7  1  0
  6 17  1  0
  7  8  2  0
  7 15  1  0
  8  9  1  0
  9 10  2  0
  9 34  1  0
 10 11  1  0
 11 12  1  0
 11 15  2  0
 12 13  1  0
 12 14  1  0
 15 16  1  0
 16 17  2  0
 16 18  1  0
 18 19  2  0
 18 26  1  0
 19 20  1  0
 19 33  1  0
 20 21  2  0
 20 25  1  0
 21 22  1  0
 21 32  1  0
 22 23  2  0
 22 30  1  0
 23 24  1  0
 23 29  1  0
 24 25  2  0
 24 28  1  0
 25 26  1  0
 26 27  1  0
 30 31  1  0
 35 36  1  0
 35 37  1  0
 35 38  1  0
M  END
$$$$
