
     RDKit          3D

 51 54  0  0  0  0  0  0  0  0999 V2000
   -3.0642   -0.6760    1.5992 C   0  0  0  0  0  0  0  0  0  0  0  0
   -3.6427    0.1684    1.9638 H   0  0  0  0  0  0  0  0  0  0  0  0
   -3.6475   -1.5800    1.7632 H   0  0  0  0  0  0  0  0  0  0  0  0
   -2.1526   -0.7458    2.1838 H   0  0  0  0  0  0  0  0  0  0  0  0
   -2.7663   -0.5464    0.0964 C   0  0  1  0  0  0  0  0  0  0  0  0
   -4.1300   -0.2954   -0.5267 C   0  0  0  0  0  0  0  0  0  0  0  0
   -4.9198   -1.1227   -0.8936 O   0  0  0  0  0  0  0  0  0  0  0  0
   -4.3292    1.2116   -0.5870 C   0  0  0  0  0  0  0  0  0  0  0  0
   -5.2100    1.4979   -0.0120 H   0  0  0  0  0  0  0  0  0  0  0  0
   -4.5240    1.4818   -1.6265 H   0  0  0  0  0  0  0  0  0  0  0  0
   -3.0268    1.8419   -0.0776 C   0  0  0  0  0  0  0  0  0  0  0  0
   -2.7755    2.7479   -0.6268 H   0  0  0  0  0  0  0  0  0  0  0  0
   -3.0957    2.0969    0.9800 H   0  0  0  0  0  0  0  0  0  0  0  0
   -2.0068    0.7244   -0.3047 C   0  0  1  0  0  0  0  0  0  0  0  0
   -0.6309    0.8020    0.3488 C   0  0  2  0  0  0  0  0  0  0  0  0
    0.0719    2.1109   -0.0100 C   0  0  0  0  0  0  0  0  0  0  0  0
    1.5021    2.1314    0.5142 C   0  0  0  0  0  0  0  0  0  0  0  0
    2.2744    0.9346   -0.0348 C   0  0  1  0  0  0  0  0  0  0  0  0
    3.7611    1.0312    0.3130 C   0  0  0  0  0  0  0  0  0  0  0  0
    4.5721   -0.1149   -0.3036 C   0  0  1  0  0  0  0  0  0  0  0  0
    3.9467   -1.4644    0.0644 C   0  0  0  0  0  0  0  0  0  0  0  0
    2.4548   -1.5289   -0.2643 C   0  0  0  0  0  0  0  0  0  0  0  0
    2.0838   -2.5023    0.0588 H   0  0  0  0  0  0  0  0  0  0  0  0
    2.3194   -1.4751   -1.3487 H   0  0  0  0  0  0  0  0  0  0  0  0
    1.6378   -0.4047    0.4017 C   0  0  1  0  0  0  0  0  0  0  0  0
    1.6646   -0.6011    1.9211 C   0  0  0  0  0  0  0  0  0  0  0  0
    1.4239   -1.6319    2.1693 H   0  0  0  0  0  0  0  0  0  0  0  0
    0.9520    0.0453    2.4232 H   0  0  0  0  0  0  0  0  0  0  0  0
    2.6484   -0.3863    2.3259 H   0  0  0  0  0  0  0  0  0  0  0  0
    0.1810   -0.4171   -0.1408 C   0  0  1  0  0  0  0  0  0  0  0  0
   -0.5626   -1.7295    0.1549 C   0  0  0  0  0  0  0  0  0  0  0  0
   -0.6029   -1.8955    1.2304 H   0  0  0  0  0  0  0  0  0  0  0  0
   -0.0144   -2.5624   -0.2860 H   0  0  0  0  0  0  0  0  0  0  0  0
   -1.9868   -1.7544   -0.4094 C   0  0  0  0  0  0  0  0  0  0  0  0
   -2.4833   -2.6819   -0.1202 H   0  0  0  0  0  0  0  0  0  0  0  0
   -1.9505   -1.7254   -1.5010 H   0  0  0  0  0  0  0  0  0  0  0  0
    0.2517   -0.3270   -1.2334 H   0  0  0  0  0  0  0  0  0  0  0  0
    4.1013   -1.6445    1.1281 H   0  0  0  0  0  0  0  0  0  0  0  0
    4.4689   -2.2511   -0.4846 H   0  0  0  0  0  0  0  0  0  0  0  0
    4.7218    0.0355   -1.6983 O   0  0  0  0  0  0  0  0  0  0  0  0
    3.8474   -0.0126   -2.1006 H   0  0  0  0  0  0  0  0  0  0  0  0
    5.5993   -0.0764    0.0777 H   0  0  0  0  0  0  0  0  0  0  0  0
    3.9035    1.0307    1.3937 H   0  0  0  0  0  0  0  0  0  0  0  0
    4.1544    1.9761   -0.0693 H   0  0  0  0  0  0  0  0  0  0  0  0
    2.1901    0.9827   -1.1292 H   0  0  0  0  0  0  0  0  0  0  0  0
    1.5049    2.1132    1.6045 H   0  0  0  0  0  0  0  0  0  0  0  0
    1.9930    3.0553    0.1998 H   0  0  0  0  0  0  0  0  0  0  0  0
   -0.4871    2.9512    0.4056 H   0  0  0  0  0  0  0  0  0  0  0  0
    0.0861    2.2254   -1.0973 H   0  0  0  0  0  0  0  0  0  0  0  0
   -0.7470    0.7629    1.4338 H   0  0  0  0  0  0  0  0  0  0  0  0
   -1.8445    0.6627   -1.3896 H   0  0  0  0  0  0  0  0  0  0  0  0
  1  2  1  0
  1  3  1  0
  1  4  1  0
  5  1  1  1
  5  6  1  0
  5 14  1  0
  5 34  1  0
  6  7  2  0
  6  8  1  0
  8  9  1  0
  8 10  1  0
  8 11  1  0
 11 12  1  0
 11 13  1  0
 11 14  1  0
 14 15  1  0
 14 51  1  6
 15 16  1  0
 15 30  1  0
 15 50  1  1
 16 17  1  0
 16 48  1  0
 16 49  1  0
 17 18  1  0
 17 46  1  0
 17 47  1  0
 18 19  1  0
 18 25  1  0
 18 45  1  6
 19 20  1  0
 19 43  1  0
 19 44  1  0
 20 21  1  0
 20 40  1  0
 20 42  1  1
 21 22  1  0
 21 38  1  0
 21 39  1  0
 22 23  1  0
 22 24  1  0
 22 25  1  0
 25 26  1  1
 25 30  1  0
 26 27  1  0
 26 28  1  0
 26 29  1  0
 30 31  1  0
 30 37  1  6
 31 32  1  0
 31 33  1  0
 31 34  1  0
 34 35  1  0
 34 36  1  0
 40 41  1  0
M  END
$$$$

     RDKit          3D

 51 54  0  0  0  0  0  0  0  0999 V2000
    3.0730    0.5774    1.6820 C   0  0  0  0  0  0  0  0  0  0  0  0
    2.1425    0.5773    2.2403 H   0  0  0  0  0  0  0  0  0  0  0  0
    3.6697   -0.2692    2.0106 H   0  0  0  0  0  0  0  0  0  0  0  0
    3.6193    1.4873    1.9224 H   0  0  0  0  0  0  0  0  0  0  0  0
    2.8258    0.5348    0.1649 C   0  0  1  0  0  0  0  0  0  0  0  0
    4.2099    0.3144   -0.4233 C   0  0  0  0  0  0  0  0  0  0  0  0
    5.0115    1.1577   -0.7219 O   0  0  0  0  0  0  0  0  0  0  0  0
    4.4117   -1.1883   -0.5520 C   0  0  0  0  0  0  0  0  0  0  0  0
    5.2706   -1.5047    0.0401 H   0  0  0  0  0  0  0  0  0  0  0  0
    4.6451   -1.4062   -1.5958 H   0  0  0  0  0  0  0  0  0  0  0  0
    3.0913   -1.8412   -0.1237 C   0  0  0  0  0  0  0  0  0  0  0  0
    2.8606   -2.7176   -0.7274 H   0  0  0  0  0  0  0  0  0  0  0  0
    3.1204   -2.1497    0.9214 H   0  0  0  0  0  0  0  0  0  0  0  0
    2.0809   -0.7113   -0.3312 C   0  0  1  0  0  0  0  0  0  0  0  0
    0.6777   -0.8219    0.2575 C   0  0  2  0  0  0  0  0  0  0  0  0
   -0.0162   -2.0963   -0.2197 C   0  0  0  0  0  0  0  0  0  0  0  0
   -1.4588   -2.1412    0.2647 C   0  0  0  0  0  0  0  0  0  0  0  0
   -2.2246   -0.9120   -0.2205 C   0  0  1  0  0  0  0  0  0  0  0  0
   -3.7048   -1.0294    0.1672 C   0  0  0  0  0  0  0  0  0  0  0  0
   -4.4804    0.2905    0.0062 C   0  0  1  0  0  0  0  0  0  0  0  0
   -3.7302    1.2063   -0.9589 C   0  0  0  0  0  0  0  0  0  0  0  0
   -2.3501    1.5805   -0.4123 C   0  0  0  0  0  0  0  0  0  0  0  0
   -2.4699    2.3895    0.3094 H   0  0  0  0  0  0  0  0  0  0  0  0
   -1.7634    1.9716   -1.2453 H   0  0  0  0  0  0  0  0  0  0  0  0
   -1.5904    0.4087    0.2652 C   0  0  1  0  0  0  0  0  0  0  0  0
   -1.6983    0.5480    1.7879 C   0  0  0  0  0  0  0  0  0  0  0  0
   -2.7301    0.4532    2.1094 H   0  0  0  0  0  0  0  0  0  0  0  0
   -1.3427    1.5241    2.1074 H   0  0  0  0  0  0  0  0  0  0  0  0
   -1.1146   -0.2105    2.3007 H   0  0  0  0  0  0  0  0  0  0  0  0
   -0.1066    0.4271   -0.1949 C   0  0  1  0  0  0  0  0  0  0  0  0
    0.6256    1.7125    0.2221 C   0  0  0  0  0  0  0  0  0  0  0  0
    0.6434    1.7900    1.3078 H   0  0  0  0  0  0  0  0  0  0  0  0
    0.0836    2.5796   -0.1566 H   0  0  0  0  0  0  0  0  0  0  0  0
    2.0646    1.7719   -0.2986 C   0  0  0  0  0  0  0  0  0  0  0  0
    2.5525    2.6803    0.0579 H   0  0  0  0  0  0  0  0  0  0  0  0
    2.0626    1.8041   -1.3908 H   0  0  0  0  0  0  0  0  0  0  0  0
   -0.1223    0.4011   -1.2927 H   0  0  0  0  0  0  0  0  0  0  0  0
   -4.3147    2.1137   -1.1228 H   0  0  0  0  0  0  0  0  0  0  0  0
   -3.6366    0.6990   -1.9232 H   0  0  0  0  0  0  0  0  0  0  0  0
   -5.8130    0.0702   -0.4034 O   0  0  0  0  0  0  0  0  0  0  0  0
   -5.8025   -0.3243   -1.2834 H   0  0  0  0  0  0  0  0  0  0  0  0
   -4.5860    0.7991    0.9694 H   0  0  0  0  0  0  0  0  0  0  0  0
   -3.7958   -1.3923    1.1915 H   0  0  0  0  0  0  0  0  0  0  0  0
   -4.1705   -1.7826   -0.4752 H   0  0  0  0  0  0  0  0  0  0  0  0
   -2.1546   -0.9073   -1.3143 H   0  0  0  0  0  0  0  0  0  0  0  0
   -1.4833   -2.1951    1.3538 H   0  0  0  0  0  0  0  0  0  0  0  0
   -1.9473   -3.0407   -0.1176 H   0  0  0  0  0  0  0  0  0  0  0  0
    0.5248   -2.9698    0.1484 H   0  0  0  0  0  0  0  0  0  0  0  0
    0.0004   -2.1284   -1.3123 H   0  0  0  0  0  0  0  0  0  0  0  0
    0.7405   -0.8513    1.3473 H   0  0  0  0  0  0  0  0  0  0  0  0
    1.9625   -0.5920   -1.4171 H   0  0  0  0  0  0  0  0  0  0  0  0
  1  2  1  0
  1  3  1  0
  1  4  1  0
  5  1  1  1
  5  6  1  0
  5 14  1  0
  5 34  1  0
  6  7  2  0
  6  8  1  0
  8  9  1  0
  8 10  1  0
  8 11  1  0
 11 12  1  0
 11 13  1  0
 11 14  1  0
 14 15  1  0
 14 51  1  6
 15 16  1  0
 15 30  1  0
 15 50  1  1
 16 17  1  0
 16 48  1  0
 16 49  1  0
 17 18  1  0
 17 46  1  0
 17 47  1  0
 18 19  1  0
 18 25  1  0
 18 45  1  6
 19 20  1  0
 19 43  1  0
 19 44  1  0
 20 21  1  0
 20 40  1  0
 20 42  1  1
 21 22  1  0
 21 38  1  0
 21 39  1  0
 22 23  1  0
 22 24  1  0
 22 25  1  0
 25 26  1  1
 25 30  1  0
 26 27  1  0
 26 28  1  0
 26 29  1  0
 30 31  1  0
 30 37  1  6
 31 32  1  0
 31 33  1  0
 31 34  1  0
 34 35  1  0
 34 36  1  0
 40 41  1  0
M  END
$$$$
