
     RDKit          3D

 14 14  0  0  0  0  0  0  0  0999 V2000
    1.0495    0.7691    0.0707 C   0  0  0  0  0  0  0  0  0  0  0  0
    1.3701    1.1573    1.0379 H   0  0  0  0  0  0  0  0  0  0  0  0
    1.7066    1.1806   -0.6927 H   0  0  0  0  0  0  0  0  0  0  0  0
   -0.4257    1.1427   -0.1967 C   0  0  0  0  0  0  0  0  0  0  0  0
   -1.2258    0.0004    0.2141 N   0  0  0  0  0  0  0  0  0  0  0  0
   -1.3129    0.0004    1.2275 H   0  0  0  0  0  0  0  0  0  0  0  0
   -0.4265   -1.1424   -0.1968 C   0  0  0  0  0  0  0  0  0  0  0  0
   -0.7408   -2.0463    0.3234 H   0  0  0  0  0  0  0  0  0  0  0  0
    1.0489   -0.7698    0.0709 C   0  0  0  0  0  0  0  0  0  0  0  0
    1.3689   -1.1581    1.0383 H   0  0  0  0  0  0  0  0  0  0  0  0
    1.7059   -1.1821   -0.6923 H   0  0  0  0  0  0  0  0  0  0  0  0
   -0.5869   -1.2844   -1.2697 H   0  0  0  0  0  0  0  0  0  0  0  0
   -0.7393    2.0467    0.3238 H   0  0  0  0  0  0  0  0  0  0  0  0
   -0.5861    1.2850   -1.2696 H   0  0  0  0  0  0  0  0  0  0  0  0
  1  2  1  0
  1  3  1  0
  1  4  1  0
  1  9  1  0
  4  5  1  0
  4 13  1  0
  4 14  1  0
  5  6  1  0
  5  7  1  0
  7  8  1  0
  7  9  1  0
  7 12  1  0
  9 10  1  0
  9 11  1  0
M  END
$$$$

     RDKit          3D

 14 14  0  0  0  0  0  0  0  0999 V2000
    1.0396    0.7704    0.0626 C   0  0  0  0  0  0  0  0  0  0  0  0
    1.3653    1.1501    1.0292 H   0  0  0  0  0  0  0  0  0  0  0  0
    1.6940    1.1816   -0.7041 H   0  0  0  0  0  0  0  0  0  0  0  0
   -0.4240    1.1525   -0.1898 C   0  0  0  0  0  0  0  0  0  0  0  0
   -1.1545   -0.0001    0.3020 N   0  0  0  0  0  0  0  0  0  0  0  0
   -2.1254   -0.0002    0.0084 H   0  0  0  0  0  0  0  0  0  0  0  0
   -0.4238   -1.1526   -0.1898 C   0  0  0  0  0  0  0  0  0  0  0  0
   -0.7270   -2.0480    0.3550 H   0  0  0  0  0  0  0  0  0  0  0  0
    1.0398   -0.7702    0.0627 C   0  0  0  0  0  0  0  0  0  0  0  0
    1.3655   -1.1498    1.0293 H   0  0  0  0  0  0  0  0  0  0  0  0
    1.6943   -1.1812   -0.7040 H   0  0  0  0  0  0  0  0  0  0  0  0
   -0.5855   -1.3283   -1.2678 H   0  0  0  0  0  0  0  0  0  0  0  0
   -0.7275    2.0479    0.3551 H   0  0  0  0  0  0  0  0  0  0  0  0
   -0.5859    1.3282   -1.2678 H   0  0  0  0  0  0  0  0  0  0  0  0
  1  2  1  0
  1  3  1  0
  1  4  1  0
  1  9  1  0
  4  5  1  0
  4 13  1  0
  4 14  1  0
  5  6  1  0
  5  7  1  0
  7  8  1  0
  7  9  1  0
  7 12  1  0
  9 10  1  0
  9 11  1  0
M  END
$$$$
