
     RDKit          3D

 46 49  0  0  0  0  0  0  0  0999 V2000
   -4.1807   -1.0840   -2.3024 C   0  0  0  0  0  0  0  0  0  0  0  0
   -3.9208   -0.6421   -1.2201 C   0  0  0  0  0  0  0  0  0  0  0  0
   -3.6977   -0.1463    0.1348 C   0  0  1  0  0  0  0  0  0  0  0  0
   -4.6480   -0.7146    1.0158 O   0  0  0  0  0  0  0  0  0  0  0  0
   -4.6263   -1.6720    0.9139 H   0  0  0  0  0  0  0  0  0  0  0  0
   -2.2125   -0.3587    0.5661 C   0  0  1  0  0  0  0  0  0  0  0  0
   -1.5693   -1.6779    0.1407 C   0  0  0  0  0  0  0  0  0  0  0  0
   -1.9788   -2.5108    0.7189 H   0  0  0  0  0  0  0  0  0  0  0  0
   -1.7903   -1.8629   -0.9138 H   0  0  0  0  0  0  0  0  0  0  0  0
   -0.0485   -1.6381    0.3288 C   0  0  0  0  0  0  0  0  0  0  0  0
    0.3531   -2.5696   -0.0709 H   0  0  0  0  0  0  0  0  0  0  0  0
    0.2029   -1.6034    1.3899 H   0  0  0  0  0  0  0  0  0  0  0  0
    0.5976   -0.4402   -0.3827 C   0  0  2  0  0  0  0  0  0  0  0  0
    2.1024   -0.3846   -0.2124 C   0  0  0  0  0  0  0  0  0  0  0  0
    2.8624   -1.5488   -0.2099 C   0  0  0  0  0  0  0  0  0  0  0  0
    4.2374   -1.5262   -0.0775 C   0  0  0  0  0  0  0  0  0  0  0  0
    4.8967   -0.3121    0.0494 C   0  0  0  0  0  0  0  0  0  0  0  0
    4.1548    0.8590    0.0243 C   0  0  0  0  0  0  0  0  0  0  0  0
    2.7743    0.8360   -0.1108 C   0  0  0  0  0  0  0  0  0  0  0  0
    2.0537    2.1568   -0.1279 C   0  0  0  0  0  0  0  0  0  0  0  0
    0.6261    2.0356   -0.6435 C   0  0  0  0  0  0  0  0  0  0  0  0
   -0.0552    0.8752    0.0730 C   0  0  1  0  0  0  0  0  0  0  0  0
   -1.5467    0.7829   -0.2169 C   0  0  2  0  0  0  0  0  0  0  0  0
   -2.4385    1.9921    0.0732 C   0  0  0  0  0  0  0  0  0  0  0  0
   -2.3710    2.7404   -0.7151 H   0  0  0  0  0  0  0  0  0  0  0  0
   -2.1509    2.4654    1.0120 H   0  0  0  0  0  0  0  0  0  0  0  0
   -3.8551    1.3961    0.1581 C   0  0  0  0  0  0  0  0  0  0  0  0
   -4.3635    1.6641    1.0830 H   0  0  0  0  0  0  0  0  0  0  0  0
   -4.4809    1.7202   -0.6725 H   0  0  0  0  0  0  0  0  0  0  0  0
   -1.6618    0.5450   -1.2828 H   0  0  0  0  0  0  0  0  0  0  0  0
    0.1036    1.0041    1.1475 H   0  0  0  0  0  0  0  0  0  0  0  0
    0.0893    2.9677   -0.4615 H   0  0  0  0  0  0  0  0  0  0  0  0
    0.6291    1.8519   -1.7201 H   0  0  0  0  0  0  0  0  0  0  0  0
    2.6190    2.8677   -0.7347 H   0  0  0  0  0  0  0  0  0  0  0  0
    2.0345    2.5510    0.8938 H   0  0  0  0  0  0  0  0  0  0  0  0
    4.6762    1.8002    0.1087 H   0  0  0  0  0  0  0  0  0  0  0  0
    6.2501   -0.2250    0.1873 O   0  0  0  0  0  0  0  0  0  0  0  0
    6.6323   -1.1105    0.1801 H   0  0  0  0  0  0  0  0  0  0  0  0
    4.7984   -2.4518   -0.0762 H   0  0  0  0  0  0  0  0  0  0  0  0
    2.3820   -2.5082   -0.3196 H   0  0  0  0  0  0  0  0  0  0  0  0
    0.3948   -0.5511   -1.4584 H   0  0  0  0  0  0  0  0  0  0  0  0
   -2.1368   -0.2049    2.0869 C   0  0  0  0  0  0  0  0  0  0  0  0
   -2.5857    0.7274    2.4125 H   0  0  0  0  0  0  0  0  0  0  0  0
   -2.6844   -1.0177    2.5603 H   0  0  0  0  0  0  0  0  0  0  0  0
   -1.1116   -0.2378    2.4407 H   0  0  0  0  0  0  0  0  0  0  0  0
   -4.3803   -1.4485   -3.2660 H   0  0  0  0  0  0  0  0  0  0  0  0
  1  2  3  0
  1 46  1  0
  3  2  1  6
  3  4  1  0
  3  6  1  0
  3 27  1  0
  4  5  1  0
  6  7  1  0
  6 23  1  0
  6 42  1  1
  7  8  1  0
  7  9  1  0
  7 10  1  0
 10 11  1  0
 10 12  1  0
 10 13  1  0
 13 14  1  0
 13 22  1  0
 13 41  1  6
 14 15  2  0
 14 19  1  0
 15 16  1  0
 15 40  1  0
 16 17  2  0
 16 39  1  0
 17 18  1  0
 17 37  1  0
 18 19  2  0
 18 36  1  0
 19 20  1  0
 20 21  1  0
 20 34  1  0
 20 35  1  0
 21 22  1  0
 21 32  1  0
 21 33  1  0
 22 23  1  0
 22 31  1  1
 23 24  1  0
 23 30  1  6
 24 25  1  0
 24 26  1  0
 24 27  1  0
 27 28  1  0
 27 29  1  0
 37 38  1  0
 42 43  1  0
 42 44  1  0
 42 45  1  0
M  END
$$$$

     RDKit          3D

 46 49  0  0  0  0  0  0  0  0999 V2000
   -4.2816   -0.0889    2.4078 C   0  0  0  0  0  0  0  0  0  0  0  0
   -3.9643   -0.0051    1.2561 C   0  0  0  0  0  0  0  0  0  0  0  0
   -3.6657    0.1447   -0.1650 C   0  0  1  0  0  0  0  0  0  0  0  0
   -4.6079    1.0129   -0.7656 O   0  0  0  0  0  0  0  0  0  0  0  0
   -4.6151    1.8431   -0.2778 H   0  0  0  0  0  0  0  0  0  0  0  0
   -2.1791    0.5703   -0.3797 C   0  0  1  0  0  0  0  0  0  0  0  0
   -1.6121    1.5672    0.6298 C   0  0  0  0  0  0  0  0  0  0  0  0
   -2.0671    2.5531    0.5003 H   0  0  0  0  0  0  0  0  0  0  0  0
   -1.8364    1.2274    1.6441 H   0  0  0  0  0  0  0  0  0  0  0  0
   -0.0957    1.6819    0.4576 C   0  0  0  0  0  0  0  0  0  0  0  0
    0.2929    2.3621    1.2190 H   0  0  0  0  0  0  0  0  0  0  0  0
    0.1259    2.1118   -0.5197 H   0  0  0  0  0  0  0  0  0  0  0  0
    0.6068    0.3297    0.5960 C   0  0  2  0  0  0  0  0  0  0  0  0
    2.0932    0.3866    0.3592 C   0  0  0  0  0  0  0  0  0  0  0  0
    2.8162    1.5352    0.0860 C   0  0  0  0  0  0  0  0  0  0  0  0
    4.1793    1.4733   -0.1531 C   0  0  0  0  0  0  0  0  0  0  0  0
    4.8383    0.2530   -0.1303 C   0  0  0  0  0  0  0  0  0  0  0  0
    4.1204   -0.9067    0.1403 C   0  0  0  0  0  0  0  0  0  0  0  0
    2.7629   -0.8401    0.3864 C   0  0  0  0  0  0  0  0  0  0  0  0
    1.9459   -2.0512    0.7053 C   0  0  0  0  0  0  0  0  0  0  0  0
    0.6751   -2.1059   -0.1554 C   0  0  0  0  0  0  0  0  0  0  0  0
    0.0250   -0.7257   -0.3737 C   0  0  1  0  0  0  0  0  0  0  0  0
   -1.4840   -0.7837   -0.1687 C   0  0  2  0  0  0  0  0  0  0  0  0
   -2.3038   -1.7380   -1.0385 C   0  0  0  0  0  0  0  0  0  0  0  0
   -2.2010   -2.7750   -0.7226 H   0  0  0  0  0  0  0  0  0  0  0  0
   -1.9828   -1.6716   -2.0778 H   0  0  0  0  0  0  0  0  0  0  0  0
   -3.7481   -1.2379   -0.8653 C   0  0  0  0  0  0  0  0  0  0  0  0
   -4.2591   -1.1029   -1.8173 H   0  0  0  0  0  0  0  0  0  0  0  0
   -4.3418   -1.9244   -0.2629 H   0  0  0  0  0  0  0  0  0  0  0  0
   -1.6586   -1.0631    0.8794 H   0  0  0  0  0  0  0  0  0  0  0  0
    0.2472   -0.3971   -1.3928 H   0  0  0  0  0  0  0  0  0  0  0  0
    0.9241   -2.5399   -1.1247 H   0  0  0  0  0  0  0  0  0  0  0  0
   -0.0362   -2.7770    0.3286 H   0  0  0  0  0  0  0  0  0  0  0  0
    1.6583   -2.0035    1.7604 H   0  0  0  0  0  0  0  0  0  0  0  0
    2.5300   -2.9613    0.5643 H   0  0  0  0  0  0  0  0  0  0  0  0
    4.6438   -1.8500    0.1567 H   0  0  0  0  0  0  0  0  0  0  0  0
    6.1773    0.1450   -0.3647 O   0  0  0  0  0  0  0  0  0  0  0  0
    6.5466    1.0195   -0.5355 H   0  0  0  0  0  0  0  0  0  0  0  0
    4.7327    2.3802   -0.3612 H   0  0  0  0  0  0  0  0  0  0  0  0
    2.3332    2.4991    0.0601 H   0  0  0  0  0  0  0  0  0  0  0  0
    0.4326   -0.0336    1.6179 H   0  0  0  0  0  0  0  0  0  0  0  0
   -2.0516    1.1230   -1.8026 C   0  0  0  0  0  0  0  0  0  0  0  0
   -1.0193    1.1368   -2.1366 H   0  0  0  0  0  0  0  0  0  0  0  0
   -2.6327    0.5329   -2.5035 H   0  0  0  0  0  0  0  0  0  0  0  0
   -2.4332    2.1419   -1.8352 H   0  0  0  0  0  0  0  0  0  0  0  0
   -4.5336   -0.1862    3.4218 H   0  0  0  0  0  0  0  0  0  0  0  0
  1  2  3  0
  1 46  1  0
  3  2  1  1
  3  4  1  0
  3  6  1  0
  3 27  1  0
  4  5  1  0
  6  7  1  0
  6 23  1  0
  6 42  1  6
  7  8  1  0
  7  9  1  0
  7 10  1  0
 10 11  1  0
 10 12  1  0
 10 13  1  0
 13 14  1  0
 13 22  1  0
 13 41  1  1
 14 15  2  0
 14 19  1  0
 15 16  1  0
 15 40  1  0
 16 17  2  0
 16 39  1  0
 17 18  1  0
 17 37  1  0
 18 19  2  0
 18 36  1  0
 19 20  1  0
 20 21  1  0
 20 34  1  0
 20 35  1  0
 21 22  1  0
 21 32  1  0
 21 33  1  0
 22 23  1  0
 22 31  1  6
 23 24  1  0
 23 30  1  1
 24 25  1  0
 24 26  1  0
 24 27  1  0
 27 28  1  0
 27 29  1  0
 37 38  1  0
 42 43  1  0
 42 44  1  0
 42 45  1  0
M  END
$$$$
