
     RDKit          3D

 27 29  0  0  0  0  0  0  0  0999 V2000
    3.4653    2.2510   -1.0068 O   0  0  0  0  0  0  0  0  0  0  0  0
    2.3528    1.9687   -0.6297 N   0  0  0  0  0  0  0  0  0  0  0  0
    1.4093    2.7665   -0.6582 O   0  0  0  0  0  0  0  0  0  0  0  0
    2.1144    0.6710   -0.1253 C   0  0  0  0  0  0  0  0  0  0  0  0
    0.8415    0.1848    0.2264 C   0  0  0  0  0  0  0  0  0  0  0  0
   -0.2511    0.9624    0.0814 N   0  0  0  0  0  0  0  0  0  0  0  0
   -1.5938    0.6075    0.1072 C   0  0  0  0  0  0  0  0  0  0  0  0
   -2.0538   -0.6169   -0.3773 C   0  0  0  0  0  0  0  0  0  0  0  0
   -3.4102   -0.8993   -0.3508 C   0  0  0  0  0  0  0  0  0  0  0  0
   -4.3298    0.0171    0.1347 C   0  0  0  0  0  0  0  0  0  0  0  0
   -3.8501    1.2380    0.5786 C   0  0  0  0  0  0  0  0  0  0  0  0
   -2.5065    1.5546    0.5723 C   0  0  0  0  0  0  0  0  0  0  0  0
   -2.1745    2.5174    0.9257 H   0  0  0  0  0  0  0  0  0  0  0  0
   -4.7252    2.1452    1.0359 F   0  0  0  0  0  0  0  0  0  0  0  0
   -5.3851   -0.1967    0.1567 H   0  0  0  0  0  0  0  0  0  0  0  0
   -3.9611   -2.4186   -0.9475 Cl  0  0  0  0  0  0  0  0  0  0  0  0
   -1.3699   -1.3311   -0.8064 H   0  0  0  0  0  0  0  0  0  0  0  0
   -0.0281    1.9408   -0.1469 H   0  0  0  0  0  0  0  0  0  0  0  0
    0.7148   -1.1224    0.8132 C   0  0  0  0  0  0  0  0  0  0  0  0
    1.7575   -1.9674    0.9929 C   0  0  0  0  0  0  0  0  0  0  0  0
    3.0346   -1.5316    0.5755 C   0  0  0  0  0  0  0  0  0  0  0  0
    4.2157   -2.1095    0.6058 N   0  0  0  0  0  0  0  0  0  0  0  0
    5.0734   -1.2206    0.1213 O   0  0  0  0  0  0  0  0  0  0  0  0
    4.5002   -0.0695   -0.2266 N   0  0  0  0  0  0  0  0  0  0  0  0
    3.2173   -0.2063    0.0339 C   0  0  0  0  0  0  0  0  0  0  0  0
    1.6433   -2.9342    1.4540 H   0  0  0  0  0  0  0  0  0  0  0  0
   -0.2658   -1.4044    1.1619 H   0  0  0  0  0  0  0  0  0  0  0  0
  1  2  2  0
  2  3  1  0
  2  4  1  0
  4  5  2  0
  4 25  1  0
  5  6  1  0
  5 19  1  0
  6  7  1  0
  6 18  1  0
  7  8  2  0
  7 12  1  0
  8  9  1  0
  8 17  1  0
  9 10  2  0
  9 16  1  0
 10 11  1  0
 10 15  1  0
 11 12  2  0
 11 14  1  0
 12 13  1  0
 19 20  2  0
 19 27  1  0
 20 21  1  0
 20 26  1  0
 21 22  2  0
 21 25  1  0
 22 23  1  0
 23 24  1  0
 24 25  2  0
M  CHG  2   2   1   3  -1
M  END
$$$$

     RDKit          3D

 27 29  0  0  0  0  0  0  0  0999 V2000
    1.1162    2.6921   -0.5885 O   0  0  0  0  0  0  0  0  0  0  0  0
    2.1682    2.0453   -0.5394 N   0  0  0  0  0  0  0  0  0  0  0  0
    3.2423    2.5117   -0.8366 O   0  0  0  0  0  0  0  0  0  0  0  0
    2.1061    0.7017   -0.1077 C   0  0  0  0  0  0  0  0  0  0  0  0
    0.9066    0.0109    0.1458 C   0  0  0  0  0  0  0  0  0  0  0  0
   -0.2836    0.6206   -0.0317 N   0  0  0  0  0  0  0  0  0  0  0  0
   -1.5561    0.0684   -0.1013 C   0  0  0  0  0  0  0  0  0  0  0  0
   -2.6248    0.8494    0.3412 C   0  0  0  0  0  0  0  0  0  0  0  0
   -3.9174    0.3612    0.2625 C   0  0  0  0  0  0  0  0  0  0  0  0
   -4.1788   -0.8983   -0.2588 C   0  0  0  0  0  0  0  0  0  0  0  0
   -3.1054   -1.6409   -0.7155 C   0  0  0  0  0  0  0  0  0  0  0  0
   -1.8009   -1.1871   -0.6563 C   0  0  0  0  0  0  0  0  0  0  0  0
   -1.0098   -1.7896   -1.0724 H   0  0  0  0  0  0  0  0  0  0  0  0
   -3.3356   -2.8515   -1.2480 F   0  0  0  0  0  0  0  0  0  0  0  0
   -5.1808   -1.2876   -0.3241 H   0  0  0  0  0  0  0  0  0  0  0  0
   -5.2239    1.3316    0.8214 Cl  0  0  0  0  0  0  0  0  0  0  0  0
   -2.4392    1.8312    0.7465 H   0  0  0  0  0  0  0  0  0  0  0  0
   -0.2020    1.6321   -0.2026 H   0  0  0  0  0  0  0  0  0  0  0  0
    0.9524   -1.3290    0.6668 C   0  0  0  0  0  0  0  0  0  0  0  0
    2.1018   -2.0150    0.8714 C   0  0  0  0  0  0  0  0  0  0  0  0
    3.3165   -1.3699    0.5499 C   0  0  0  0  0  0  0  0  0  0  0  0
    4.5693   -1.7633    0.6252 N   0  0  0  0  0  0  0  0  0  0  0  0
    5.3039   -0.7310    0.2317 O   0  0  0  0  0  0  0  0  0  0  0  0
    4.5793    0.3367   -0.0993 N   0  0  0  0  0  0  0  0  0  0  0  0
    3.3210   -0.0059    0.0783 C   0  0  0  0  0  0  0  0  0  0  0  0
    2.1137   -3.0105    1.2826 H   0  0  0  0  0  0  0  0  0  0  0  0
    0.0103   -1.7738    0.9449 H   0  0  0  0  0  0  0  0  0  0  0  0
  1  2  2  0
  2  3  1  0
  2  4  1  0
  4  5  2  0
  4 25  1  0
  5  6  1  0
  5 19  1  0
  6  7  1  0
  6 18  1  0
  7  8  2  0
  7 12  1  0
  8  9  1  0
  8 17  1  0
  9 10  2  0
  9 16  1  0
 10 11  1  0
 10 15  1  0
 11 12  2  0
 11 14  1  0
 12 13  1  0
 19 20  2  0
 19 27  1  0
 20 21  1  0
 20 26  1  0
 21 22  2  0
 21 25  1  0
 22 23  1  0
 23 24  1  0
 24 25  2  0
M  CHG  2   2   1   3  -1
M  END
$$$$
