
     RDKit          3D

 35 38  0  0  0  0  0  0  0  0999 V2000
   -3.5343   -0.4065    2.1405 C   0  0  0  0  0  0  0  0  0  0  0  0
   -3.2761    0.4360    0.9505 C   0  0  0  0  0  0  0  0  0  0  0  0
   -3.9557    1.4908    0.6172 N   0  0  0  0  0  0  0  0  0  0  0  0
   -3.4152    2.0251   -0.4939 N   0  0  0  0  0  0  0  0  0  0  0  0
   -2.3955    1.3014   -0.8282 C   0  0  0  0  0  0  0  0  0  0  0  0
   -2.2419    0.2541    0.0561 N   0  0  0  0  0  0  0  0  0  0  0  0
   -1.2603   -0.7360   -0.0313 C   0  0  0  0  0  0  0  0  0  0  0  0
   -1.5942   -2.0685    0.2004 C   0  0  0  0  0  0  0  0  0  0  0  0
   -0.6412   -3.0611    0.0982 C   0  0  0  0  0  0  0  0  0  0  0  0
    0.6606   -2.7212   -0.2432 C   0  0  0  0  0  0  0  0  0  0  0  0
    1.0093   -1.4027   -0.4704 C   0  0  0  0  0  0  0  0  0  0  0  0
    0.0572   -0.3914   -0.3671 C   0  0  0  0  0  0  0  0  0  0  0  0
    0.4794    1.0087   -0.6308 C   0  0  0  0  0  0  0  0  0  0  0  0
   -0.1527    1.8473   -1.3446 N   0  0  0  0  0  0  0  0  0  0  0  0
   -1.4239    1.5085   -1.9309 C   0  0  0  0  0  0  0  0  0  0  0  0
   -1.7473    2.3470   -2.5484 H   0  0  0  0  0  0  0  0  0  0  0  0
   -1.3597    0.5947   -2.5409 H   0  0  0  0  0  0  0  0  0  0  0  0
    1.7527    1.4447   -0.0362 C   0  0  0  0  0  0  0  0  0  0  0  0
    2.2253    0.8917    1.1524 C   0  0  0  0  0  0  0  0  0  0  0  0
    3.4152    1.3343    1.7004 C   0  0  0  0  0  0  0  0  0  0  0  0
    4.1465    2.3276    1.0704 C   0  0  0  0  0  0  0  0  0  0  0  0
    3.6768    2.8899   -0.1063 C   0  0  0  0  0  0  0  0  0  0  0  0
    2.4857    2.4565   -0.6545 C   0  0  0  0  0  0  0  0  0  0  0  0
    2.1011    2.8847   -1.5664 H   0  0  0  0  0  0  0  0  0  0  0  0
    4.2423    3.6690   -0.5955 H   0  0  0  0  0  0  0  0  0  0  0  0
    5.0782    2.6659    1.4988 H   0  0  0  0  0  0  0  0  0  0  0  0
    3.7723    0.9026    2.6237 H   0  0  0  0  0  0  0  0  0  0  0  0
    1.6545    0.1266    1.6594 H   0  0  0  0  0  0  0  0  0  0  0  0
    2.0229   -1.1503   -0.7415 H   0  0  0  0  0  0  0  0  0  0  0  0
    1.8586   -3.9572   -0.3876 Cl  0  0  0  0  0  0  0  0  0  0  0  0
   -0.9051   -4.0919    0.2715 H   0  0  0  0  0  0  0  0  0  0  0  0
   -2.6136   -2.3270    0.4385 H   0  0  0  0  0  0  0  0  0  0  0  0
   -4.0430    0.2000    2.8848 H   0  0  0  0  0  0  0  0  0  0  0  0
   -2.6024   -0.7906    2.5516 H   0  0  0  0  0  0  0  0  0  0  0  0
   -4.1834   -1.2454    1.8897 H   0  0  0  0  0  0  0  0  0  0  0  0
  1  2  1  0
  1 33  1  0
  1 34  1  0
  1 35  1  0
  2  3  2  0
  2  6  1  0
  3  4  1  0
  4  5  2  0
  5  6  1  0
  5 15  1  0
  6  7  1  0
  7  8  2  0
  7 12  1  0
  8  9  1  0
  8 32  1  0
  9 10  2  0
  9 31  1  0
 10 11  1  0
 10 30  1  0
 11 12  2  0
 11 29  1  0
 12 13  1  0
 13 14  2  0
 13 18  1  0
 14 15  1  0
 15 16  1  0
 15 17  1  0
 18 19  2  0
 18 23  1  0
 19 20  1  0
 19 28  1  0
 20 21  2  0
 20 27  1  0
 21 22  1  0
 21 26  1  0
 22 23  2  0
 22 25  1  0
 23 24  1  0
M  END
$$$$
