
     RDKit          3D

 33 34  0  0  0  0  0  0  0  0999 V2000
   -5.8265   -2.2402    1.7460 C   0  0  0  0  0  0  0  0  0  0  0  0
   -5.0496   -2.2665    2.5169 H   0  0  0  0  0  0  0  0  0  0  0  0
   -5.2718   -2.2421    0.4525 O   0  0  0  0  0  0  0  0  0  0  0  0
   -4.4706   -1.2075    0.0844 C   0  0  0  0  0  0  0  0  0  0  0  0
   -4.1358   -0.1274    0.8952 C   0  0  0  0  0  0  0  0  0  0  0  0
   -3.3118    0.8716    0.4071 C   0  0  0  0  0  0  0  0  0  0  0  0
   -2.8096    0.8210   -0.8846 C   0  0  0  0  0  0  0  0  0  0  0  0
   -3.1393   -0.2650   -1.6874 C   0  0  0  0  0  0  0  0  0  0  0  0
   -3.9611   -1.2651   -1.2143 C   0  0  0  0  0  0  0  0  0  0  0  0
   -4.2279   -2.1083   -1.8313 H   0  0  0  0  0  0  0  0  0  0  0  0
   -2.7550   -0.3239   -2.6953 H   0  0  0  0  0  0  0  0  0  0  0  0
   -1.8793    1.8999   -1.3748 C   0  0  0  0  0  0  0  0  0  0  0  0
   -0.5308    1.6772   -0.8813 N   0  0  0  0  0  0  0  0  0  0  0  0
   -0.0432    2.3601    0.1549 C   0  0  0  0  0  0  0  0  0  0  0  0
   -0.5485    3.3002    0.7182 O   0  0  0  0  0  0  0  0  0  0  0  0
    1.2429    1.9303    0.6048 N   0  0  0  0  0  0  0  0  0  0  0  0
    1.9852    0.8867    0.2025 C   0  0  0  0  0  0  0  0  0  0  0  0
    1.6532    0.0473   -0.7446 N   0  0  0  0  0  0  0  0  0  0  0  0
    2.5833   -0.8965   -0.9303 C   0  0  0  0  0  0  0  0  0  0  0  0
    3.6787   -0.8013   -0.1117 C   0  0  0  0  0  0  0  0  0  0  0  0
    4.8108   -1.6297   -0.0655 N   0  0  0  0  0  0  0  0  0  0  0  0
    5.6686   -1.3535    0.7498 O   0  0  0  0  0  0  0  0  0  0  0  0
    4.8470   -2.5612   -0.8452 O   0  0  0  0  0  0  0  0  0  0  0  0
    3.5352    0.5605    0.9650 S   0  0  0  0  0  0  0  0  0  0  0  0
    2.4390   -1.6541   -1.6790 H   0  0  0  0  0  0  0  0  0  0  0  0
    1.6026    2.5024    1.3587 H   0  0  0  0  0  0  0  0  0  0  0  0
   -0.0250    0.8556   -1.1956 H   0  0  0  0  0  0  0  0  0  0  0  0
   -2.1957    2.8775   -1.0040 H   0  0  0  0  0  0  0  0  0  0  0  0
   -1.8479    1.9155   -2.4670 H   0  0  0  0  0  0  0  0  0  0  0  0
   -3.0557    1.7072    1.0418 H   0  0  0  0  0  0  0  0  0  0  0  0
   -4.5109   -0.0510    1.9034 H   0  0  0  0  0  0  0  0  0  0  0  0
   -6.4695   -1.3689    1.9064 H   0  0  0  0  0  0  0  0  0  0  0  0
   -6.4267   -3.1463    1.8100 H   0  0  0  0  0  0  0  0  0  0  0  0
  1  2  1  0
  1  3  1  0
  1 32  1  0
  1 33  1  0
  3  4  1  0
  4  5  2  0
  4  9  1  0
  5  6  1  0
  5 31  1  0
  6  7  2  0
  6 30  1  0
  7  8  1  0
  7 12  1  0
  8  9  2  0
  8 11  1  0
  9 10  1  0
 12 13  1  0
 12 28  1  0
 12 29  1  0
 13 14  1  0
 13 27  1  0
 14 15  2  0
 14 16  1  0
 16 17  1  0
 16 26  1  0
 17 18  2  0
 17 24  1  0
 18 19  1  0
 19 20  2  0
 19 25  1  0
 20 21  1  0
 20 24  1  0
 21 22  2  0
 21 23  1  0
M  CHG  2  21   1  23  -1
M  END
$$$$

     RDKit          3D

 33 34  0  0  0  0  0  0  0  0999 V2000
   -6.1052   -1.9755   -1.7539 C   0  0  0  0  0  0  0  0  0  0  0  0
   -6.7468   -1.0887   -1.7374 H   0  0  0  0  0  0  0  0  0  0  0  0
   -5.4260   -2.1442   -0.5329 O   0  0  0  0  0  0  0  0  0  0  0  0
   -4.5802   -1.1648   -0.1160 C   0  0  0  0  0  0  0  0  0  0  0  0
   -4.3039    0.0050   -0.8166 C   0  0  0  0  0  0  0  0  0  0  0  0
   -3.4282    0.9361   -0.2860 C   0  0  0  0  0  0  0  0  0  0  0  0
   -2.8177    0.7291    0.9417 C   0  0  0  0  0  0  0  0  0  0  0  0
   -3.0879   -0.4470    1.6325 C   0  0  0  0  0  0  0  0  0  0  0  0
   -3.9584   -1.3817    1.1154 C   0  0  0  0  0  0  0  0  0  0  0  0
   -4.1797   -2.2939    1.6462 H   0  0  0  0  0  0  0  0  0  0  0  0
   -2.6177   -0.6286    2.5881 H   0  0  0  0  0  0  0  0  0  0  0  0
   -1.8424    1.7426    1.4820 C   0  0  0  0  0  0  0  0  0  0  0  0
   -0.5143    1.5328    0.9301 N   0  0  0  0  0  0  0  0  0  0  0  0
   -0.0646    2.2520   -0.0985 C   0  0  0  0  0  0  0  0  0  0  0  0
   -0.5997    3.1987   -0.6216 O   0  0  0  0  0  0  0  0  0  0  0  0
    1.2157    1.8564   -0.5937 N   0  0  0  0  0  0  0  0  0  0  0  0
    2.0074    0.8433   -0.2085 C   0  0  0  0  0  0  0  0  0  0  0  0
    1.7242   -0.0171    0.7356 N   0  0  0  0  0  0  0  0  0  0  0  0
    2.6996   -0.9172    0.9059 C   0  0  0  0  0  0  0  0  0  0  0  0
    3.7810   -0.7658    0.0772 C   0  0  0  0  0  0  0  0  0  0  0  0
    4.9508   -1.5389    0.0151 N   0  0  0  0  0  0  0  0  0  0  0  0
    5.7858   -1.2182   -0.8077 O   0  0  0  0  0  0  0  0  0  0  0  0
    5.0400   -2.4709    0.7900 O   0  0  0  0  0  0  0  0  0  0  0  0
    3.5627    0.5940   -0.9893 S   0  0  0  0  0  0  0  0  0  0  0  0
    2.5990   -1.6852    1.6512 H   0  0  0  0  0  0  0  0  0  0  0  0
    1.5423    2.4508   -1.3455 H   0  0  0  0  0  0  0  0  0  0  0  0
    0.0119    0.7120    1.2103 H   0  0  0  0  0  0  0  0  0  0  0  0
   -1.7747    1.6712    2.5702 H   0  0  0  0  0  0  0  0  0  0  0  0
   -2.1480    2.7524    1.1992 H   0  0  0  0  0  0  0  0  0  0  0  0
   -3.2163    1.8410   -0.8361 H   0  0  0  0  0  0  0  0  0  0  0  0
   -4.7648    0.2040   -1.7710 H   0  0  0  0  0  0  0  0  0  0  0  0
   -5.4091   -1.9058   -2.5960 H   0  0  0  0  0  0  0  0  0  0  0  0
   -6.7232   -2.8641   -1.8719 H   0  0  0  0  0  0  0  0  0  0  0  0
  1  2  1  0
  1  3  1  0
  1 32  1  0
  1 33  1  0
  3  4  1  0
  4  5  2  0
  4  9  1  0
  5  6  1  0
  5 31  1  0
  6  7  2  0
  6 30  1  0
  7  8  1  0
  7 12  1  0
  8  9  2  0
  8 11  1  0
  9 10  1  0
 12 13  1  0
 12 28  1  0
 12 29  1  0
 13 14  1  0
 13 27  1  0
 14 15  2  0
 14 16  1  0
 16 17  1  0
 16 26  1  0
 17 18  2  0
 17 24  1  0
 18 19  1  0
 19 20  2  0
 19 25  1  0
 20 21  1  0
 20 24  1  0
 21 22  2  0
 21 23  1  0
M  CHG  2  21   1  23  -1
M  END
$$$$

     RDKit          3D

 33 34  0  0  0  0  0  0  0  0999 V2000
   -5.7789   -3.0541    0.5091 C   0  0  0  0  0  0  0  0  0  0  0  0
   -5.6658   -3.3354   -0.5425 H   0  0  0  0  0  0  0  0  0  0  0  0
   -5.9629   -1.6657    0.6555 O   0  0  0  0  0  0  0  0  0  0  0  0
   -4.9839   -0.8288    0.2248 C   0  0  0  0  0  0  0  0  0  0  0  0
   -5.2360    0.5354    0.3849 C   0  0  0  0  0  0  0  0  0  0  0  0
   -4.3064    1.4698   -0.0180 C   0  0  0  0  0  0  0  0  0  0  0  0
   -3.1069    1.0720   -0.5974 C   0  0  0  0  0  0  0  0  0  0  0  0
   -2.8578   -0.2842   -0.7522 C   0  0  0  0  0  0  0  0  0  0  0  0
   -3.7812   -1.2319   -0.3482 C   0  0  0  0  0  0  0  0  0  0  0  0
   -3.5543   -2.2765   -0.4888 H   0  0  0  0  0  0  0  0  0  0  0  0
   -1.9278   -0.6040   -1.1986 H   0  0  0  0  0  0  0  0  0  0  0  0
   -2.0629    2.0782   -1.0056 C   0  0  0  0  0  0  0  0  0  0  0  0
   -0.9850    2.1409   -0.0272 N   0  0  0  0  0  0  0  0  0  0  0  0
    0.1486    1.4341   -0.1962 C   0  0  0  0  0  0  0  0  0  0  0  0
    0.4550    0.8349   -1.2072 O   0  0  0  0  0  0  0  0  0  0  0  0
    1.0175    1.4613    0.8906 N   0  0  0  0  0  0  0  0  0  0  0  0
    2.2159    0.8199    0.8300 C   0  0  0  0  0  0  0  0  0  0  0  0
    3.0611    0.8275    1.8230 N   0  0  0  0  0  0  0  0  0  0  0  0
    4.1592    0.1207    1.5215 C   0  0  0  0  0  0  0  0  0  0  0  0
    4.1520   -0.4407    0.2696 C   0  0  0  0  0  0  0  0  0  0  0  0
    5.1492   -1.2302   -0.3204 N   0  0  0  0  0  0  0  0  0  0  0  0
    4.9456   -1.6372   -1.4480 O   0  0  0  0  0  0  0  0  0  0  0  0
    6.1492   -1.4557    0.3358 O   0  0  0  0  0  0  0  0  0  0  0  0
    2.6796   -0.0595   -0.5906 S   0  0  0  0  0  0  0  0  0  0  0  0
    4.9525    0.0323    2.2411 H   0  0  0  0  0  0  0  0  0  0  0  0
    0.8139    1.9653    1.7414 H   0  0  0  0  0  0  0  0  0  0  0  0
   -1.2269    2.4818    0.8900 H   0  0  0  0  0  0  0  0  0  0  0  0
   -2.4982    3.0757   -1.0989 H   0  0  0  0  0  0  0  0  0  0  0  0
   -1.6022    1.7904   -1.9527 H   0  0  0  0  0  0  0  0  0  0  0  0
   -4.5192    2.5216    0.1100 H   0  0  0  0  0  0  0  0  0  0  0  0
   -6.1723    0.8342    0.8286 H   0  0  0  0  0  0  0  0  0  0  0  0
   -4.9116   -3.4067    1.0763 H   0  0  0  0  0  0  0  0  0  0  0  0
   -6.6810   -3.5137    0.9094 H   0  0  0  0  0  0  0  0  0  0  0  0
  1  2  1  0
  1  3  1  0
  1 32  1  0
  1 33  1  0
  3  4  1  0
  4  5  2  0
  4  9  1  0
  5  6  1  0
  5 31  1  0
  6  7  2  0
  6 30  1  0
  7  8  1  0
  7 12  1  0
  8  9  2  0
  8 11  1  0
  9 10  1  0
 12 13  1  0
 12 28  1  0
 12 29  1  0
 13 14  1  0
 13 27  1  0
 14 15  2  0
 14 16  1  0
 16 17  1  0
 16 26  1  0
 17 18  2  0
 17 24  1  0
 18 19  1  0
 19 20  2  0
 19 25  1  0
 20 21  1  0
 20 24  1  0
 21 22  2  0
 21 23  1  0
M  CHG  2  21   1  23  -1
M  END
$$$$

     RDKit          3D

 33 34  0  0  0  0  0  0  0  0999 V2000
   -5.2110   -3.1930   -1.1066 C   0  0  0  0  0  0  0  0  0  0  0  0
   -6.1207   -3.7804   -1.2190 H   0  0  0  0  0  0  0  0  0  0  0  0
   -5.5878   -2.0406   -0.3926 O   0  0  0  0  0  0  0  0  0  0  0  0
   -4.6367   -1.1111   -0.1073 C   0  0  0  0  0  0  0  0  0  0  0  0
   -5.0727    0.0100    0.6032 C   0  0  0  0  0  0  0  0  0  0  0  0
   -4.1881    1.0078    0.9432 C   0  0  0  0  0  0  0  0  0  0  0  0
   -2.8446    0.9261    0.5848 C   0  0  0  0  0  0  0  0  0  0  0  0
   -2.4177   -0.1846   -0.1219 C   0  0  0  0  0  0  0  0  0  0  0  0
   -3.2978   -1.1993   -0.4659 C   0  0  0  0  0  0  0  0  0  0  0  0
   -2.9229   -2.0485   -1.0150 H   0  0  0  0  0  0  0  0  0  0  0  0
   -1.3841   -0.2752   -0.4221 H   0  0  0  0  0  0  0  0  0  0  0  0
   -1.9175    2.0544    0.9713 C   0  0  0  0  0  0  0  0  0  0  0  0
   -0.5341    1.8040    0.6445 N   0  0  0  0  0  0  0  0  0  0  0  0
    0.0995    2.5007   -0.3003 C   0  0  0  0  0  0  0  0  0  0  0  0
   -0.3073    3.4690   -0.8932 O   0  0  0  0  0  0  0  0  0  0  0  0
    1.4193    2.0435   -0.6006 N   0  0  0  0  0  0  0  0  0  0  0  0
    2.0582    0.9402   -0.1803 C   0  0  0  0  0  0  0  0  0  0  0  0
    1.5772    0.0711    0.6717 N   0  0  0  0  0  0  0  0  0  0  0  0
    2.4306   -0.9339    0.9018 C   0  0  0  0  0  0  0  0  0  0  0  0
    3.6153   -0.8574    0.2167 C   0  0  0  0  0  0  0  0  0  0  0  0
    4.7007   -1.7472    0.2429 N   0  0  0  0  0  0  0  0  0  0  0  0
    5.6584   -1.4754   -0.4538 O   0  0  0  0  0  0  0  0  0  0  0  0
    4.5990   -2.7230    0.9602 O   0  0  0  0  0  0  0  0  0  0  0  0
    3.6664    0.5677   -0.7838 S   0  0  0  0  0  0  0  0  0  0  0  0
    2.1629   -1.7214    1.5827 H   0  0  0  0  0  0  0  0  0  0  0  0
    1.8869    2.6286   -1.2819 H   0  0  0  0  0  0  0  0  0  0  0  0
   -0.0759    0.9877    1.0356 H   0  0  0  0  0  0  0  0  0  0  0  0
   -2.0015    2.2401    2.0484 H   0  0  0  0  0  0  0  0  0  0  0  0
   -2.2088    2.9677    0.4424 H   0  0  0  0  0  0  0  0  0  0  0  0
   -4.5398    1.8694    1.4914 H   0  0  0  0  0  0  0  0  0  0  0  0
   -6.1146    0.0708    0.8741 H   0  0  0  0  0  0  0  0  0  0  0  0
   -4.8186   -2.9421   -2.0974 H   0  0  0  0  0  0  0  0  0  0  0  0
   -4.4673   -3.7804   -0.5584 H   0  0  0  0  0  0  0  0  0  0  0  0
  1  2  1  0
  1  3  1  0
  1 32  1  0
  1 33  1  0
  3  4  1  0
  4  5  2  0
  4  9  1  0
  5  6  1  0
  5 31  1  0
  6  7  2  0
  6 30  1  0
  7  8  1  0
  7 12  1  0
  8  9  2  0
  8 11  1  0
  9 10  1  0
 12 13  1  0
 12 28  1  0
 12 29  1  0
 13 14  1  0
 13 27  1  0
 14 15  2  0
 14 16  1  0
 16 17  1  0
 16 26  1  0
 17 18  2  0
 17 24  1  0
 18 19  1  0
 19 20  2  0
 19 25  1  0
 20 21  1  0
 20 24  1  0
 21 22  2  0
 21 23  1  0
M  CHG  2  21   1  23  -1
M  END
$$$$

     RDKit          3D

 33 34  0  0  0  0  0  0  0  0999 V2000
    6.7029    2.0018   -0.8754 C   0  0  0  0  0  0  0  0  0  0  0  0
    7.2057    1.7206    0.0556 H   0  0  0  0  0  0  0  0  0  0  0  0
    5.3309    2.2379   -0.6706 O   0  0  0  0  0  0  0  0  0  0  0  0
    4.5557    1.2179   -0.2139 C   0  0  0  0  0  0  0  0  0  0  0  0
    5.0071   -0.0663    0.0702 C   0  0  0  0  0  0  0  0  0  0  0  0
    4.1186   -1.0242    0.5274 C   0  0  0  0  0  0  0  0  0  0  0  0
    2.7769   -0.7332    0.7200 C   0  0  0  0  0  0  0  0  0  0  0  0
    2.3321    0.5539    0.4379 C   0  0  0  0  0  0  0  0  0  0  0  0
    3.2052    1.5146   -0.0261 C   0  0  0  0  0  0  0  0  0  0  0  0
    2.8648    2.5129   -0.2511 H   0  0  0  0  0  0  0  0  0  0  0  0
    1.2935    0.8160    0.5750 H   0  0  0  0  0  0  0  0  0  0  0  0
    1.8483   -1.8025    1.2486 C   0  0  0  0  0  0  0  0  0  0  0  0
    0.4792   -1.6352    0.8176 N   0  0  0  0  0  0  0  0  0  0  0  0
   -0.0388   -2.3579   -0.1764 C   0  0  0  0  0  0  0  0  0  0  0  0
    0.4570   -3.3050   -0.7338 O   0  0  0  0  0  0  0  0  0  0  0  0
   -1.3541   -1.9626   -0.5748 N   0  0  0  0  0  0  0  0  0  0  0  0
   -2.0804   -0.9021   -0.1876 C   0  0  0  0  0  0  0  0  0  0  0  0
   -1.7081   -0.0218    0.7071 N   0  0  0  0  0  0  0  0  0  0  0  0
   -2.6312    0.9293    0.8935 C   0  0  0  0  0  0  0  0  0  0  0  0
   -3.7616    0.7981    0.1298 C   0  0  0  0  0  0  0  0  0  0  0  0
   -4.8966    1.6235    0.1003 N   0  0  0  0  0  0  0  0  0  0  0  0
   -5.7898    1.3130   -0.6629 O   0  0  0  0  0  0  0  0  0  0  0  0
   -4.8994    2.5864    0.8417 O   0  0  0  0  0  0  0  0  0  0  0  0
   -3.6629   -0.6088   -0.8929 S   0  0  0  0  0  0  0  0  0  0  0  0
   -2.4553    1.7184    1.6019 H   0  0  0  0  0  0  0  0  0  0  0  0
   -1.7400   -2.5618   -1.2937 H   0  0  0  0  0  0  0  0  0  0  0  0
   -0.0513   -0.8388    1.1540 H   0  0  0  0  0  0  0  0  0  0  0  0
    1.8664   -1.7956    2.3450 H   0  0  0  0  0  0  0  0  0  0  0  0
    2.1809   -2.7834    0.9000 H   0  0  0  0  0  0  0  0  0  0  0  0
    4.4827   -2.0191    0.7382 H   0  0  0  0  0  0  0  0  0  0  0  0
    6.0427   -0.3356   -0.0642 H   0  0  0  0  0  0  0  0  0  0  0  0
    6.8696    1.2250   -1.6286 H   0  0  0  0  0  0  0  0  0  0  0  0
    7.1131    2.9442   -1.2346 H   0  0  0  0  0  0  0  0  0  0  0  0
  1  2  1  0
  1  3  1  0
  1 32  1  0
  1 33  1  0
  3  4  1  0
  4  5  2  0
  4  9  1  0
  5  6  1  0
  5 31  1  0
  6  7  2  0
  6 30  1  0
  7  8  1  0
  7 12  1  0
  8  9  2  0
  8 11  1  0
  9 10  1  0
 12 13  1  0
 12 28  1  0
 12 29  1  0
 13 14  1  0
 13 27  1  0
 14 15  2  0
 14 16  1  0
 16 17  1  0
 16 26  1  0
 17 18  2  0
 17 24  1  0
 18 19  1  0
 19 20  2  0
 19 25  1  0
 20 21  1  0
 20 24  1  0
 21 22  2  0
 21 23  1  0
M  CHG  2  21   1  23  -1
M  END
$$$$

     RDKit          3D

 33 34  0  0  0  0  0  0  0  0999 V2000
   -5.2013   -3.2837   -0.5244 C   0  0  0  0  0  0  0  0  0  0  0  0
   -4.2314   -3.7613   -0.3525 H   0  0  0  0  0  0  0  0  0  0  0  0
   -5.3650   -2.1411    0.2813 O   0  0  0  0  0  0  0  0  0  0  0  0
   -4.5021   -1.1034    0.1260 C   0  0  0  0  0  0  0  0  0  0  0  0
   -3.4452   -1.0691   -0.7781 C   0  0  0  0  0  0  0  0  0  0  0  0
   -2.6315    0.0484   -0.8468 C   0  0  0  0  0  0  0  0  0  0  0  0
   -2.8400    1.1442   -0.0215 C   0  0  0  0  0  0  0  0  0  0  0  0
   -3.8972    1.1031    0.8806 C   0  0  0  0  0  0  0  0  0  0  0  0
   -4.7201    0.0002    0.9530 C   0  0  0  0  0  0  0  0  0  0  0  0
   -5.5434   -0.0369    1.6483 H   0  0  0  0  0  0  0  0  0  0  0  0
   -4.0793    1.9461    1.5303 H   0  0  0  0  0  0  0  0  0  0  0  0
   -1.9411    2.3444   -0.1067 C   0  0  0  0  0  0  0  0  0  0  0  0
   -0.5478    1.9398   -0.0330 N   0  0  0  0  0  0  0  0  0  0  0  0
    0.4399    2.8273   -0.1208 C   0  0  0  0  0  0  0  0  0  0  0  0
    0.3391    4.0231   -0.2435 O   0  0  0  0  0  0  0  0  0  0  0  0
    1.7558    2.2684   -0.0573 N   0  0  0  0  0  0  0  0  0  0  0  0
    2.1320    0.9818   -0.0013 C   0  0  0  0  0  0  0  0  0  0  0  0
    1.3142   -0.0392    0.0465 N   0  0  0  0  0  0  0  0  0  0  0  0
    1.9670   -1.2060    0.0895 C   0  0  0  0  0  0  0  0  0  0  0  0
    3.3343   -1.1080    0.0763 C   0  0  0  0  0  0  0  0  0  0  0  0
    4.2841   -2.1404    0.1082 N   0  0  0  0  0  0  0  0  0  0  0  0
    5.4560   -1.8196    0.0877 O   0  0  0  0  0  0  0  0  0  0  0  0
    3.8612   -3.2794    0.1527 O   0  0  0  0  0  0  0  0  0  0  0  0
    3.8384    0.5583    0.0062 S   0  0  0  0  0  0  0  0  0  0  0  0
    1.4169   -2.1285    0.1309 H   0  0  0  0  0  0  0  0  0  0  0  0
    2.4815    2.9727   -0.1046 H   0  0  0  0  0  0  0  0  0  0  0  0
   -0.3235    0.9559    0.0705 H   0  0  0  0  0  0  0  0  0  0  0  0
   -2.1570    3.0473    0.7046 H   0  0  0  0  0  0  0  0  0  0  0  0
   -2.1009    2.8787   -1.0523 H   0  0  0  0  0  0  0  0  0  0  0  0
   -1.8226    0.0627   -1.5631 H   0  0  0  0  0  0  0  0  0  0  0  0
   -3.2481   -1.9011   -1.4353 H   0  0  0  0  0  0  0  0  0  0  0  0
   -5.9954   -3.9676   -0.2296 H   0  0  0  0  0  0  0  0  0  0  0  0
   -5.3070   -3.0446   -1.5873 H   0  0  0  0  0  0  0  0  0  0  0  0
  1  2  1  0
  1  3  1  0
  1 32  1  0
  1 33  1  0
  3  4  1  0
  4  5  2  0
  4  9  1  0
  5  6  1  0
  5 31  1  0
  6  7  2  0
  6 30  1  0
  7  8  1  0
  7 12  1  0
  8  9  2  0
  8 11  1  0
  9 10  1  0
 12 13  1  0
 12 28  1  0
 12 29  1  0
 13 14  1  0
 13 27  1  0
 14 15  2  0
 14 16  1  0
 16 17  1  0
 16 26  1  0
 17 18  2  0
 17 24  1  0
 18 19  1  0
 19 20  2  0
 19 25  1  0
 20 21  1  0
 20 24  1  0
 21 22  2  0
 21 23  1  0
M  CHG  2  21   1  23  -1
M  END
$$$$

     RDKit          3D

 33 34  0  0  0  0  0  0  0  0999 V2000
   -3.1180   -2.5759   -0.1508 C   0  0  0  0  0  0  0  0  0  0  0  0
   -4.0214   -2.6131   -0.7567 H   0  0  0  0  0  0  0  0  0  0  0  0
   -2.0845   -2.2125   -1.0402 O   0  0  0  0  0  0  0  0  0  0  0  0
   -0.8122   -2.1361   -0.5804 C   0  0  0  0  0  0  0  0  0  0  0  0
   -0.4076   -2.4178    0.7209 C   0  0  0  0  0  0  0  0  0  0  0  0
    0.9169   -2.2416    1.0860 C   0  0  0  0  0  0  0  0  0  0  0  0
    1.8616   -1.7958    0.1750 C   0  0  0  0  0  0  0  0  0  0  0  0
    1.4585   -1.5528   -1.1362 C   0  0  0  0  0  0  0  0  0  0  0  0
    0.1453   -1.7228   -1.5121 C   0  0  0  0  0  0  0  0  0  0  0  0
   -0.1772   -1.5253   -2.5222 H   0  0  0  0  0  0  0  0  0  0  0  0
    2.1822   -1.2082   -1.8606 H   0  0  0  0  0  0  0  0  0  0  0  0
    3.2225   -1.3336    0.6335 C   0  0  0  0  0  0  0  0  0  0  0  0
    3.0741    0.0969    0.9105 N   0  0  0  0  0  0  0  0  0  0  0  0
    3.1345    0.9560   -0.1262 C   0  0  0  0  0  0  0  0  0  0  0  0
    3.9524    0.9819   -1.0071 O   0  0  0  0  0  0  0  0  0  0  0  0
    2.0936    1.9501   -0.1361 N   0  0  0  0  0  0  0  0  0  0  0  0
    0.8260    1.6740    0.2423 C   0  0  0  0  0  0  0  0  0  0  0  0
    0.5204    0.9239    1.2675 N   0  0  0  0  0  0  0  0  0  0  0  0
   -0.7942    0.7089    1.3657 C   0  0  0  0  0  0  0  0  0  0  0  0
   -1.5544    1.3223    0.4030 C   0  0  0  0  0  0  0  0  0  0  0  0
   -2.9458    1.2545    0.2445 N   0  0  0  0  0  0  0  0  0  0  0  0
   -3.4526    1.9267   -0.6293 O   0  0  0  0  0  0  0  0  0  0  0  0
   -3.5418    0.5057    0.9992 O   0  0  0  0  0  0  0  0  0  0  0  0
   -0.5538    2.2284   -0.6946 S   0  0  0  0  0  0  0  0  0  0  0  0
   -1.1806    0.1070    2.1672 H   0  0  0  0  0  0  0  0  0  0  0  0
    2.2033    2.6073   -0.9002 H   0  0  0  0  0  0  0  0  0  0  0  0
    2.3118    0.2813    1.5596 H   0  0  0  0  0  0  0  0  0  0  0  0
    3.9818   -1.4534   -0.1399 H   0  0  0  0  0  0  0  0  0  0  0  0
    3.5402   -1.8330    1.5492 H   0  0  0  0  0  0  0  0  0  0  0  0
    1.2110   -2.4383    2.1068 H   0  0  0  0  0  0  0  0  0  0  0  0
   -1.1178   -2.7552    1.4590 H   0  0  0  0  0  0  0  0  0  0  0  0
   -2.9395   -3.5595    0.2931 H   0  0  0  0  0  0  0  0  0  0  0  0
   -3.2495   -1.8290    0.6390 H   0  0  0  0  0  0  0  0  0  0  0  0
  1  2  1  0
  1  3  1  0
  1 32  1  0
  1 33  1  0
  3  4  1  0
  4  5  2  0
  4  9  1  0
  5  6  1  0
  5 31  1  0
  6  7  2  0
  6 30  1  0
  7  8  1  0
  7 12  1  0
  8  9  2  0
  8 11  1  0
  9 10  1  0
 12 13  1  0
 12 28  1  0
 12 29  1  0
 13 14  1  0
 13 27  1  0
 14 15  2  0
 14 16  1  0
 16 17  1  0
 16 26  1  0
 17 18  2  0
 17 24  1  0
 18 19  1  0
 19 20  2  0
 19 25  1  0
 20 21  1  0
 20 24  1  0
 21 22  2  0
 21 23  1  0
M  CHG  2  21   1  23  -1
M  END
$$$$

     RDKit          3D

 33 34  0  0  0  0  0  0  0  0999 V2000
    3.9476   -1.8903    0.1651 C   0  0  0  0  0  0  0  0  0  0  0  0
    4.1324   -2.6760   -0.5739 H   0  0  0  0  0  0  0  0  0  0  0  0
    2.8627   -2.2180    1.0076 O   0  0  0  0  0  0  0  0  0  0  0  0
    1.6233   -2.2772    0.4690 C   0  0  0  0  0  0  0  0  0  0  0  0
    0.5669   -2.4151    1.3747 C   0  0  0  0  0  0  0  0  0  0  0  0
   -0.7376   -2.4235    0.9335 C   0  0  0  0  0  0  0  0  0  0  0  0
   -1.0266   -2.3182   -0.4235 C   0  0  0  0  0  0  0  0  0  0  0  0
    0.0257   -2.2289   -1.3239 C   0  0  0  0  0  0  0  0  0  0  0  0
    1.3399   -2.2077   -0.8926 C   0  0  0  0  0  0  0  0  0  0  0  0
    2.1307   -2.1125   -1.6180 H   0  0  0  0  0  0  0  0  0  0  0  0
   -0.1810   -2.1574   -2.3826 H   0  0  0  0  0  0  0  0  0  0  0  0
   -2.4422   -2.0888   -0.8841 C   0  0  0  0  0  0  0  0  0  0  0  0
   -2.6481   -0.6439   -0.9158 N   0  0  0  0  0  0  0  0  0  0  0  0
   -3.1952    0.0171    0.1188 C   0  0  0  0  0  0  0  0  0  0  0  0
   -4.0006   -0.4176    0.8992 O   0  0  0  0  0  0  0  0  0  0  0  0
   -2.7936    1.3858    0.2060 N   0  0  0  0  0  0  0  0  0  0  0  0
   -1.5285    1.8530    0.1547 C   0  0  0  0  0  0  0  0  0  0  0  0
   -1.2237    3.0647    0.5329 N   0  0  0  0  0  0  0  0  0  0  0  0
    0.0849    3.3112    0.4337 C   0  0  0  0  0  0  0  0  0  0  0  0
    0.8393    2.2640   -0.0366 C   0  0  0  0  0  0  0  0  0  0  0  0
    2.2166    2.1839   -0.2583 N   0  0  0  0  0  0  0  0  0  0  0  0
    2.6462    1.1276   -0.6942 O   0  0  0  0  0  0  0  0  0  0  0  0
    2.8899    3.1629   -0.0042 O   0  0  0  0  0  0  0  0  0  0  0  0
   -0.1621    0.8812   -0.3778 S   0  0  0  0  0  0  0  0  0  0  0  0
    0.4746    4.2724    0.7159 H   0  0  0  0  0  0  0  0  0  0  0  0
   -3.4257    1.9701    0.7440 H   0  0  0  0  0  0  0  0  0  0  0  0
   -2.0355   -0.1437   -1.5427 H   0  0  0  0  0  0  0  0  0  0  0  0
   -3.1700   -2.5053   -0.1874 H   0  0  0  0  0  0  0  0  0  0  0  0
   -2.6160   -2.4869   -1.8856 H   0  0  0  0  0  0  0  0  0  0  0  0
   -1.5460   -2.4943    1.6462 H   0  0  0  0  0  0  0  0  0  0  0  0
    0.8006   -2.4887    2.4250 H   0  0  0  0  0  0  0  0  0  0  0  0
    3.7761   -0.9363   -0.3417 H   0  0  0  0  0  0  0  0  0  0  0  0
    4.8118   -1.8054    0.8216 H   0  0  0  0  0  0  0  0  0  0  0  0
  1  2  1  0
  1  3  1  0
  1 32  1  0
  1 33  1  0
  3  4  1  0
  4  5  2  0
  4  9  1  0
  5  6  1  0
  5 31  1  0
  6  7  2  0
  6 30  1  0
  7  8  1  0
  7 12  1  0
  8  9  2  0
  8 11  1  0
  9 10  1  0
 12 13  1  0
 12 28  1  0
 12 29  1  0
 13 14  1  0
 13 27  1  0
 14 15  2  0
 14 16  1  0
 16 17  1  0
 16 26  1  0
 17 18  2  0
 17 24  1  0
 18 19  1  0
 19 20  2  0
 19 25  1  0
 20 21  1  0
 20 24  1  0
 21 22  2  0
 21 23  1  0
M  CHG  2  21   1  23  -1
M  END
$$$$

     RDKit          3D

 33 34  0  0  0  0  0  0  0  0999 V2000
   -2.7710   -1.9932   -1.6336 C   0  0  0  0  0  0  0  0  0  0  0  0
   -3.8359   -2.1670   -1.4909 H   0  0  0  0  0  0  0  0  0  0  0  0
   -2.1788   -2.2352   -0.3773 O   0  0  0  0  0  0  0  0  0  0  0  0
   -0.8367   -2.0981   -0.2422 C   0  0  0  0  0  0  0  0  0  0  0  0
    0.0367   -1.7237   -1.2593 C   0  0  0  0  0  0  0  0  0  0  0  0
    1.3795   -1.5398   -0.9796 C   0  0  0  0  0  0  0  0  0  0  0  0
    1.8824   -1.7221    0.3016 C   0  0  0  0  0  0  0  0  0  0  0  0
    1.0120   -2.1389    1.3033 C   0  0  0  0  0  0  0  0  0  0  0  0
   -0.3259   -2.3335    1.0371 C   0  0  0  0  0  0  0  0  0  0  0  0
   -1.0117   -2.6448    1.8088 H   0  0  0  0  0  0  0  0  0  0  0  0
    1.3848   -2.2944    2.3048 H   0  0  0  0  0  0  0  0  0  0  0  0
    3.2662   -1.2234    0.6380 C   0  0  0  0  0  0  0  0  0  0  0  0
    3.1253    0.2254    0.8065 N   0  0  0  0  0  0  0  0  0  0  0  0
    3.0982    0.9816   -0.3113 C   0  0  0  0  0  0  0  0  0  0  0  0
    3.8695    0.9455   -1.2330 O   0  0  0  0  0  0  0  0  0  0  0  0
    2.0157    1.9246   -0.3700 N   0  0  0  0  0  0  0  0  0  0  0  0
    0.7882    1.6538    0.1291 C   0  0  0  0  0  0  0  0  0  0  0  0
    0.5782    1.0949    1.2898 N   0  0  0  0  0  0  0  0  0  0  0  0
   -0.7181    0.8513    1.5116 C   0  0  0  0  0  0  0  0  0  0  0  0
   -1.5578    1.2342    0.4985 C   0  0  0  0  0  0  0  0  0  0  0  0
   -2.9501    1.0724    0.4101 N   0  0  0  0  0  0  0  0  0  0  0  0
   -3.4673    1.3303   -0.6607 O   0  0  0  0  0  0  0  0  0  0  0  0
   -3.5290    0.6760    1.3997 O   0  0  0  0  0  0  0  0  0  0  0  0
   -0.6651    1.9385   -0.8181 S   0  0  0  0  0  0  0  0  0  0  0  0
   -1.0308    0.3898    2.4299 H   0  0  0  0  0  0  0  0  0  0  0  0
    2.0445    2.4783   -1.2188 H   0  0  0  0  0  0  0  0  0  0  0  0
    2.4043    0.4628    1.4853 H   0  0  0  0  0  0  0  0  0  0  0  0
    3.9798   -1.4030   -0.1669 H   0  0  0  0  0  0  0  0  0  0  0  0
    3.6403   -1.6478    1.5698 H   0  0  0  0  0  0  0  0  0  0  0  0
    2.0437   -1.2248   -1.7719 H   0  0  0  0  0  0  0  0  0  0  0  0
   -0.3195   -1.5560   -2.2634 H   0  0  0  0  0  0  0  0  0  0  0  0
   -2.6208   -0.9596   -1.9622 H   0  0  0  0  0  0  0  0  0  0  0  0
   -2.3892   -2.6787   -2.3961 H   0  0  0  0  0  0  0  0  0  0  0  0
  1  2  1  0
  1  3  1  0
  1 32  1  0
  1 33  1  0
  3  4  1  0
  4  5  2  0
  4  9  1  0
  5  6  1  0
  5 31  1  0
  6  7  2  0
  6 30  1  0
  7  8  1  0
  7 12  1  0
  8  9  2  0
  8 11  1  0
  9 10  1  0
 12 13  1  0
 12 28  1  0
 12 29  1  0
 13 14  1  0
 13 27  1  0
 14 15  2  0
 14 16  1  0
 16 17  1  0
 16 26  1  0
 17 18  2  0
 17 24  1  0
 18 19  1  0
 19 20  2  0
 19 25  1  0
 20 21  1  0
 20 24  1  0
 21 22  2  0
 21 23  1  0
M  CHG  2  21   1  23  -1
M  END
$$$$

     RDKit          3D

 33 34  0  0  0  0  0  0  0  0999 V2000
   -2.7801   -2.0066    1.6216 C   0  0  0  0  0  0  0  0  0  0  0  0
   -3.8424   -2.1924    1.4742 H   0  0  0  0  0  0  0  0  0  0  0  0
   -2.1765   -2.2647    0.3741 O   0  0  0  0  0  0  0  0  0  0  0  0
   -0.8348   -2.1165    0.2460 C   0  0  0  0  0  0  0  0  0  0  0  0
   -0.3121   -2.3707   -1.0248 C   0  0  0  0  0  0  0  0  0  0  0  0
    1.0261   -2.1698   -1.2843 C   0  0  0  0  0  0  0  0  0  0  0  0
    1.8853   -1.7280   -0.2837 C   0  0  0  0  0  0  0  0  0  0  0  0
    1.3708   -1.5255    0.9898 C   0  0  0  0  0  0  0  0  0  0  0  0
    0.0274   -1.7152    1.2626 C   0  0  0  0  0  0  0  0  0  0  0  0
   -0.3381   -1.5319    2.2607 H   0  0  0  0  0  0  0  0  0  0  0  0
    2.0262   -1.1904    1.7813 H   0  0  0  0  0  0  0  0  0  0  0  0
    3.2691   -1.2275   -0.6174 C   0  0  0  0  0  0  0  0  0  0  0  0
    3.1242    0.2186   -0.8030 N   0  0  0  0  0  0  0  0  0  0  0  0
    3.0984    0.9897    0.3041 C   0  0  0  0  0  0  0  0  0  0  0  0
    3.8693    0.9653    1.2265 O   0  0  0  0  0  0  0  0  0  0  0  0
    2.0175    1.9358    0.3489 N   0  0  0  0  0  0  0  0  0  0  0  0
    0.7885    1.6580   -0.1425 C   0  0  0  0  0  0  0  0  0  0  0  0
    0.5750    1.0753   -1.2908 N   0  0  0  0  0  0  0  0  0  0  0  0
   -0.7224    0.8315   -1.5056 C   0  0  0  0  0  0  0  0  0  0  0  0
   -1.5593    1.2389   -0.4998 C   0  0  0  0  0  0  0  0  0  0  0  0
   -2.9521    1.0843   -0.4067 N   0  0  0  0  0  0  0  0  0  0  0  0
   -3.4669    1.3621    0.6603 O   0  0  0  0  0  0  0  0  0  0  0  0
   -3.5340    0.6727   -1.3883 O   0  0  0  0  0  0  0  0  0  0  0  0
   -0.6624    1.9676    0.8006 S   0  0  0  0  0  0  0  0  0  0  0  0
   -1.0380    0.3508   -2.4130 H   0  0  0  0  0  0  0  0  0  0  0  0
    2.0489    2.5039    1.1881 H   0  0  0  0  0  0  0  0  0  0  0  0
    2.4023    0.4461   -1.4843 H   0  0  0  0  0  0  0  0  0  0  0  0
    3.6501   -1.6613   -1.5421 H   0  0  0  0  0  0  0  0  0  0  0  0
    3.9788   -1.3954    0.1935 H   0  0  0  0  0  0  0  0  0  0  0  0
    1.4080   -2.3408   -2.2798 H   0  0  0  0  0  0  0  0  0  0  0  0
   -0.9892   -2.7020   -1.7958 H   0  0  0  0  0  0  0  0  0  0  0  0
   -2.3980   -2.6755    2.3985 H   0  0  0  0  0  0  0  0  0  0  0  0
   -2.6414   -0.9665    1.9341 H   0  0  0  0  0  0  0  0  0  0  0  0
  1  2  1  0
  1  3  1  0
  1 32  1  0
  1 33  1  0
  3  4  1  0
  4  5  2  0
  4  9  1  0
  5  6  1  0
  5 31  1  0
  6  7  2  0
  6 30  1  0
  7  8  1  0
  7 12  1  0
  8  9  2  0
  8 11  1  0
  9 10  1  0
 12 13  1  0
 12 28  1  0
 12 29  1  0
 13 14  1  0
 13 27  1  0
 14 15  2  0
 14 16  1  0
 16 17  1  0
 16 26  1  0
 17 18  2  0
 17 24  1  0
 18 19  1  0
 19 20  2  0
 19 25  1  0
 20 21  1  0
 20 24  1  0
 21 22  2  0
 21 23  1  0
M  CHG  2  21   1  23  -1
M  END
$$$$

     RDKit          3D

 33 34  0  0  0  0  0  0  0  0999 V2000
   -2.6141   -2.3834   -1.5838 C   0  0  0  0  0  0  0  0  0  0  0  0
   -2.1947   -2.9910   -2.3916 H   0  0  0  0  0  0  0  0  0  0  0  0
   -1.9649   -2.6315   -0.3587 O   0  0  0  0  0  0  0  0  0  0  0  0
   -0.6462   -2.3360   -0.2415 C   0  0  0  0  0  0  0  0  0  0  0  0
    0.1518   -1.8194   -1.2582 C   0  0  0  0  0  0  0  0  0  0  0  0
    1.4716   -1.4944   -0.9986 C   0  0  0  0  0  0  0  0  0  0  0  0
    2.0249   -1.6741    0.2616 C   0  0  0  0  0  0  0  0  0  0  0  0
    1.2330   -2.2263    1.2625 C   0  0  0  0  0  0  0  0  0  0  0  0
   -0.0802   -2.5623    1.0155 C   0  0  0  0  0  0  0  0  0  0  0  0
   -0.7057   -2.9823    1.7868 H   0  0  0  0  0  0  0  0  0  0  0  0
    1.6468   -2.3800    2.2481 H   0  0  0  0  0  0  0  0  0  0  0  0
    3.3580   -1.0474    0.5866 C   0  0  0  0  0  0  0  0  0  0  0  0
    3.0764    0.3740    0.7958 N   0  0  0  0  0  0  0  0  0  0  0  0
    3.0156    1.1753   -0.2851 C   0  0  0  0  0  0  0  0  0  0  0  0
    3.7887    1.2210   -1.2054 O   0  0  0  0  0  0  0  0  0  0  0  0
    1.8923    2.0727   -0.2979 N   0  0  0  0  0  0  0  0  0  0  0  0
    0.6707    1.7222    0.1611 C   0  0  0  0  0  0  0  0  0  0  0  0
    0.4672    1.0172    1.2417 N   0  0  0  0  0  0  0  0  0  0  0  0
   -0.8261    0.7353    1.4301 C   0  0  0  0  0  0  0  0  0  0  0  0
   -1.6710    1.2406    0.4762 C   0  0  0  0  0  0  0  0  0  0  0  0
   -3.0649    1.1003    0.3814 N   0  0  0  0  0  0  0  0  0  0  0  0
   -3.5983    1.5398   -0.6197 O   0  0  0  0  0  0  0  0  0  0  0  0
   -3.6311    0.5403    1.2976 O   0  0  0  0  0  0  0  0  0  0  0  0
   -0.7863    2.1185   -0.7385 S   0  0  0  0  0  0  0  0  0  0  0  0
   -1.1329    0.1535    2.2795 H   0  0  0  0  0  0  0  0  0  0  0  0
    1.9113    2.6928   -1.0997 H   0  0  0  0  0  0  0  0  0  0  0  0
    2.3281    0.5220    1.4699 H   0  0  0  0  0  0  0  0  0  0  0  0
    4.0703   -1.1339   -0.2348 H   0  0  0  0  0  0  0  0  0  0  0  0
    3.7907   -1.4568    1.4997 H   0  0  0  0  0  0  0  0  0  0  0  0
    2.0757   -1.0723   -1.7894 H   0  0  0  0  0  0  0  0  0  0  0  0
   -0.2455   -1.6534   -2.2471 H   0  0  0  0  0  0  0  0  0  0  0  0
   -3.6543   -2.6617   -1.4248 H   0  0  0  0  0  0  0  0  0  0  0  0
   -2.5654   -1.3256   -1.8622 H   0  0  0  0  0  0  0  0  0  0  0  0
  1  2  1  0
  1  3  1  0
  1 32  1  0
  1 33  1  0
  3  4  1  0
  4  5  2  0
  4  9  1  0
  5  6  1  0
  5 31  1  0
  6  7  2  0
  6 30  1  0
  7  8  1  0
  7 12  1  0
  8  9  2  0
  8 11  1  0
  9 10  1  0
 12 13  1  0
 12 28  1  0
 12 29  1  0
 13 14  1  0
 13 27  1  0
 14 15  2  0
 14 16  1  0
 16 17  1  0
 16 26  1  0
 17 18  2  0
 17 24  1  0
 18 19  1  0
 19 20  2  0
 19 25  1  0
 20 21  1  0
 20 24  1  0
 21 22  2  0
 21 23  1  0
M  CHG  2  21   1  23  -1
M  END
$$$$
