
     RDKit          3D

 22 23  0  0  0  0  0  0  0  0999 V2000
   -3.6728   -1.2211   -0.1611 C   0  0  0  0  0  0  0  0  0  0  0  0
   -2.3078   -0.6282   -0.0680 C   0  0  0  0  0  0  0  0  0  0  0  0
   -1.2722   -1.3902   -0.0346 N   0  0  0  0  0  0  0  0  0  0  0  0
   -0.0316   -0.8247    0.0462 C   0  0  0  0  0  0  0  0  0  0  0  0
    0.1557    0.5237    0.0982 C   0  0  0  0  0  0  0  0  0  0  0  0
   -0.9969    1.4056    0.0727 C   0  0  0  0  0  0  0  0  0  0  0  0
   -0.9819    2.6188    0.1204 O   0  0  0  0  0  0  0  0  0  0  0  0
   -2.2116    0.7239   -0.0181 N   0  0  0  0  0  0  0  0  0  0  0  0
   -3.0436    1.3029   -0.0471 H   0  0  0  0  0  0  0  0  0  0  0  0
    1.4782    1.2141    0.1911 C   0  0  0  0  0  0  0  0  0  0  0  0
    1.6830    1.5073    1.2253 H   0  0  0  0  0  0  0  0  0  0  0  0
    1.4601    2.1194   -0.4164 H   0  0  0  0  0  0  0  0  0  0  0  0
    2.8617    0.1978   -0.3913 S   0  0  0  0  0  0  0  0  0  0  0  0
    2.3989   -1.2839    0.5580 C   0  0  0  0  0  0  0  0  0  0  0  0
    1.0802   -1.8330    0.0477 C   0  0  0  0  0  0  0  0  0  0  0  0
    1.2050   -2.1913   -0.9786 H   0  0  0  0  0  0  0  0  0  0  0  0
    0.7604   -2.6863    0.6506 H   0  0  0  0  0  0  0  0  0  0  0  0
    2.3366   -0.9993    1.6090 H   0  0  0  0  0  0  0  0  0  0  0  0
    3.2036   -2.0045    0.4261 H   0  0  0  0  0  0  0  0  0  0  0  0
   -4.2703   -0.9302    0.7014 H   0  0  0  0  0  0  0  0  0  0  0  0
   -3.5907   -2.3024   -0.1942 H   0  0  0  0  0  0  0  0  0  0  0  0
   -4.1752   -0.8695   -1.0608 H   0  0  0  0  0  0  0  0  0  0  0  0
  1  2  1  0
  1 20  1  0
  1 21  1  0
  1 22  1  0
  2  3  2  0
  2  8  1  0
  3  4  1  0
  4  5  2  0
  4 15  1  0
  5  6  1  0
  5 10  1  0
  6  7  2  0
  6  8  1  0
  8  9  1  0
 10 11  1  0
 10 12  1  0
 10 13  1  0
 13 14  1  0
 14 15  1  0
 14 18  1  0
 14 19  1  0
 15 16  1  0
 15 17  1  0
M  END
$$$$

     RDKit          3D

 22 23  0  0  0  0  0  0  0  0999 V2000
   -3.6710   -1.2285    0.1619 C   0  0  0  0  0  0  0  0  0  0  0  0
   -2.3115   -0.6206    0.0672 C   0  0  0  0  0  0  0  0  0  0  0  0
   -1.2749   -1.3841    0.0331 N   0  0  0  0  0  0  0  0  0  0  0  0
   -0.0344   -0.8226   -0.0468 C   0  0  0  0  0  0  0  0  0  0  0  0
    0.1570    0.5259   -0.0986 C   0  0  0  0  0  0  0  0  0  0  0  0
   -0.9930    1.4088   -0.0723 C   0  0  0  0  0  0  0  0  0  0  0  0
   -0.9781    2.6222   -0.1194 O   0  0  0  0  0  0  0  0  0  0  0  0
   -2.2109    0.7296    0.0183 N   0  0  0  0  0  0  0  0  0  0  0  0
   -3.0378    1.3157    0.0477 H   0  0  0  0  0  0  0  0  0  0  0  0
    1.4814    1.2127   -0.1920 C   0  0  0  0  0  0  0  0  0  0  0  0
    1.4657    2.1185    0.4149 H   0  0  0  0  0  0  0  0  0  0  0  0
    1.6876    1.5045   -1.2263 H   0  0  0  0  0  0  0  0  0  0  0  0
    2.8618    0.1929    0.3917 S   0  0  0  0  0  0  0  0  0  0  0  0
    2.3955   -1.2875   -0.5578 C   0  0  0  0  0  0  0  0  0  0  0  0
    1.0753   -1.8335   -0.0480 C   0  0  0  0  0  0  0  0  0  0  0  0
    0.7537   -2.6862   -0.6506 H   0  0  0  0  0  0  0  0  0  0  0  0
    1.1989   -2.1917    0.9784 H   0  0  0  0  0  0  0  0  0  0  0  0
    3.1983   -2.0102   -0.4257 H   0  0  0  0  0  0  0  0  0  0  0  0
    2.3343   -1.0027   -1.6089 H   0  0  0  0  0  0  0  0  0  0  0  0
   -3.8210   -1.9127   -0.6701 H   0  0  0  0  0  0  0  0  0  0  0  0
   -4.4479   -0.4691    0.1522 H   0  0  0  0  0  0  0  0  0  0  0  0
   -3.7443   -1.8098    1.0786 H   0  0  0  0  0  0  0  0  0  0  0  0
  1  2  1  0
  1 20  1  0
  1 21  1  0
  1 22  1  0
  2  3  2  0
  2  8  1  0
  3  4  1  0
  4  5  2  0
  4 15  1  0
  5  6  1  0
  5 10  1  0
  6  7  2  0
  6  8  1  0
  8  9  1  0
 10 11  1  0
 10 12  1  0
 10 13  1  0
 13 14  1  0
 14 15  1  0
 14 18  1  0
 14 19  1  0
 15 16  1  0
 15 17  1  0
M  END
$$$$

     RDKit          3D

 22 23  0  0  0  0  0  0  0  0999 V2000
   -3.6195   -1.1746    0.3538 C   0  0  0  0  0  0  0  0  0  0  0  0
   -2.2661   -0.6019    0.1032 C   0  0  0  0  0  0  0  0  0  0  0  0
   -1.2744   -1.3826   -0.1632 N   0  0  0  0  0  0  0  0  0  0  0  0
   -0.0589   -0.8160   -0.3877 C   0  0  0  0  0  0  0  0  0  0  0  0
    0.1620    0.5297   -0.3489 C   0  0  0  0  0  0  0  0  0  0  0  0
   -0.9284    1.4291   -0.0412 C   0  0  0  0  0  0  0  0  0  0  0  0
   -0.8917    2.6387    0.0359 O   0  0  0  0  0  0  0  0  0  0  0  0
   -2.1328    0.7459    0.1714 N   0  0  0  0  0  0  0  0  0  0  0  0
   -2.9338    1.3272    0.3927 H   0  0  0  0  0  0  0  0  0  0  0  0
    1.5165    1.0759   -0.6036 C   0  0  0  0  0  0  0  0  0  0  0  0
    1.5597    2.1332   -0.3465 H   0  0  0  0  0  0  0  0  0  0  0  0
    1.8126    0.9401   -1.6465 H   0  0  0  0  0  0  0  0  0  0  0  0
    2.7946    0.2394    0.4206 S   0  0  0  0  0  0  0  0  0  0  0  0
    2.1640   -1.4805    0.4383 C   0  0  0  0  0  0  0  0  0  0  0  0
    1.0981   -1.7310   -0.6250 C   0  0  0  0  0  0  0  0  0  0  0  0
    1.5239   -1.5485   -1.6152 H   0  0  0  0  0  0  0  0  0  0  0  0
    0.7596   -2.7661   -0.5702 H   0  0  0  0  0  0  0  0  0  0  0  0
    1.7561   -1.6667    1.4328 H   0  0  0  0  0  0  0  0  0  0  0  0
    3.0298   -2.1223    0.2810 H   0  0  0  0  0  0  0  0  0  0  0  0
   -3.5724   -2.2549    0.2630 H   0  0  0  0  0  0  0  0  0  0  0  0
   -4.3346   -0.7822   -0.3676 H   0  0  0  0  0  0  0  0  0  0  0  0
   -3.9614   -0.9110    1.3535 H   0  0  0  0  0  0  0  0  0  0  0  0
  1  2  1  0
  1 20  1  0
  1 21  1  0
  1 22  1  0
  2  3  2  0
  2  8  1  0
  3  4  1  0
  4  5  2  0
  4 15  1  0
  5  6  1  0
  5 10  1  0
  6  7  2  0
  6  8  1  0
  8  9  1  0
 10 11  1  0
 10 12  1  0
 10 13  1  0
 13 14  1  0
 14 15  1  0
 14 18  1  0
 14 19  1  0
 15 16  1  0
 15 17  1  0
M  END
$$$$

     RDKit          3D

 22 23  0  0  0  0  0  0  0  0999 V2000
   -3.6181   -1.1816   -0.3518 C   0  0  0  0  0  0  0  0  0  0  0  0
   -2.2693   -0.5936   -0.1051 C   0  0  0  0  0  0  0  0  0  0  0  0
   -1.2772   -1.3760    0.1636 N   0  0  0  0  0  0  0  0  0  0  0  0
   -0.0619   -0.8134    0.3886 C   0  0  0  0  0  0  0  0  0  0  0  0
    0.1636    0.5321    0.3495 C   0  0  0  0  0  0  0  0  0  0  0  0
   -0.9238    1.4326    0.0405 C   0  0  0  0  0  0  0  0  0  0  0  0
   -0.8869    2.6422   -0.0366 O   0  0  0  0  0  0  0  0  0  0  0  0
   -2.1312    0.7520   -0.1741 N   0  0  0  0  0  0  0  0  0  0  0  0
   -2.9267    1.3405   -0.3964 H   0  0  0  0  0  0  0  0  0  0  0  0
    1.5199    1.0738    0.6045 C   0  0  0  0  0  0  0  0  0  0  0  0
    1.8160    0.9362    1.6472 H   0  0  0  0  0  0  0  0  0  0  0  0
    1.5666    2.1311    0.3483 H   0  0  0  0  0  0  0  0  0  0  0  0
    2.7947    0.2337   -0.4210 S   0  0  0  0  0  0  0  0  0  0  0  0
    2.1585   -1.4843   -0.4382 C   0  0  0  0  0  0  0  0  0  0  0  0
    1.0928   -1.7316    0.6259 C   0  0  0  0  0  0  0  0  0  0  0  0
    0.7512   -2.7656    0.5718 H   0  0  0  0  0  0  0  0  0  0  0  0
    1.5198   -1.5497    1.6157 H   0  0  0  0  0  0  0  0  0  0  0  0
    3.0223   -2.1290   -0.2819 H   0  0  0  0  0  0  0  0  0  0  0  0
    1.7491   -1.6690   -1.4325 H   0  0  0  0  0  0  0  0  0  0  0  0
   -4.3501   -0.4151   -0.5904 H   0  0  0  0  0  0  0  0  0  0  0  0
   -3.9410   -1.7283    0.5317 H   0  0  0  0  0  0  0  0  0  0  0  0
   -3.5582   -1.8946   -1.1710 H   0  0  0  0  0  0  0  0  0  0  0  0
  1  2  1  0
  1 20  1  0
  1 21  1  0
  1 22  1  0
  2  3  2  0
  2  8  1  0
  3  4  1  0
  4  5  2  0
  4 15  1  0
  5  6  1  0
  5 10  1  0
  6  7  2  0
  6  8  1  0
  8  9  1  0
 10 11  1  0
 10 12  1  0
 10 13  1  0
 13 14  1  0
 14 15  1  0
 14 18  1  0
 14 19  1  0
 15 16  1  0
 15 17  1  0
M  END
$$$$
