
     RDKit          3D

 51 54  0  0  0  0  0  0  0  0999 V2000
   -3.0227   -0.6930    1.5022 C   0  0  0  0  0  0  0  0  0  0  0  0
   -2.1040   -0.7037    2.0788 H   0  0  0  0  0  0  0  0  0  0  0  0
   -3.6437    0.1152    1.8801 H   0  0  0  0  0  0  0  0  0  0  0  0
   -3.5327   -1.6391    1.6788 H   0  0  0  0  0  0  0  0  0  0  0  0
   -2.7477   -0.5345    0.0033 C   0  0  2  0  0  0  0  0  0  0  0  0
   -1.9562   -1.7292   -0.5207 C   0  0  0  0  0  0  0  0  0  0  0  0
   -2.4543   -2.6643   -0.2575 H   0  0  0  0  0  0  0  0  0  0  0  0
   -0.5346   -1.7253    0.0492 C   0  0  0  0  0  0  0  0  0  0  0  0
   -0.5798   -1.9015    1.1228 H   0  0  0  0  0  0  0  0  0  0  0  0
    0.0075   -2.5581   -0.3995 H   0  0  0  0  0  0  0  0  0  0  0  0
    0.2147   -0.4142   -0.2344 C   0  0  1  0  0  0  0  0  0  0  0  0
    0.2776   -0.3077   -1.3251 H   0  0  0  0  0  0  0  0  0  0  0  0
   -0.5906    0.7974    0.2807 C   0  0  2  0  0  0  0  0  0  0  0  0
   -1.9735    0.7398   -0.3609 C   0  0  2  0  0  0  0  0  0  0  0  0
   -2.9722    1.8637   -0.0777 C   0  0  0  0  0  0  0  0  0  0  0  0
   -2.7483    2.7600   -0.6536 H   0  0  0  0  0  0  0  0  0  0  0  0
   -2.9573    2.1334    0.9787 H   0  0  0  0  0  0  0  0  0  0  0  0
   -4.3285    1.2560   -0.4820 C   0  0  0  0  0  0  0  0  0  0  0  0
   -4.7271    1.7271   -1.3787 H   0  0  0  0  0  0  0  0  0  0  0  0
   -5.0735    1.3807    0.3059 H   0  0  0  0  0  0  0  0  0  0  0  0
   -4.0835   -0.2551   -0.7281 C   0  0  2  0  0  0  0  0  0  0  0  0
   -5.1633   -1.0713   -0.3687 O   0  0  0  0  0  0  0  0  0  0  0  0
   -5.3452   -0.9423    0.5693 H   0  0  0  0  0  0  0  0  0  0  0  0
   -3.9501   -0.4423   -1.7984 H   0  0  0  0  0  0  0  0  0  0  0  0
   -1.8225    0.7141   -1.4476 H   0  0  0  0  0  0  0  0  0  0  0  0
    0.1141    2.1089   -0.0631 C   0  0  0  0  0  0  0  0  0  0  0  0
    1.5432    2.1182    0.4634 C   0  0  0  0  0  0  0  0  0  0  0  0
    2.3118    0.9306   -0.1095 C   0  0  1  0  0  0  0  0  0  0  0  0
    3.7997    1.0198    0.2498 C   0  0  0  0  0  0  0  0  0  0  0  0
    4.5792   -0.1186   -0.3574 C   0  0  0  0  0  0  0  0  0  0  0  0
    5.5921    0.0418   -0.9915 O   0  0  0  0  0  0  0  0  0  0  0  0
    3.9787   -1.4765   -0.0944 C   0  0  0  0  0  0  0  0  0  0  0  0
    4.5120   -2.2234   -0.6855 H   0  0  0  0  0  0  0  0  0  0  0  0
    2.4832   -1.5175   -0.4199 C   0  0  0  0  0  0  0  0  0  0  0  0
    2.1071   -2.5031   -0.1433 H   0  0  0  0  0  0  0  0  0  0  0  0
    2.3583   -1.4055   -1.4997 H   0  0  0  0  0  0  0  0  0  0  0  0
    1.6770   -0.4179    0.2948 C   0  0  2  0  0  0  0  0  0  0  0  0
    1.7178   -0.6620    1.8067 C   0  0  0  0  0  0  0  0  0  0  0  0
    1.4748   -1.6992    2.0245 H   0  0  0  0  0  0  0  0  0  0  0  0
    1.0097   -0.0301    2.3332 H   0  0  0  0  0  0  0  0  0  0  0  0
    2.7044   -0.4627    2.2143 H   0  0  0  0  0  0  0  0  0  0  0  0
    4.1334   -1.7110    0.9611 H   0  0  0  0  0  0  0  0  0  0  0  0
    4.2127    1.9645   -0.1097 H   0  0  0  0  0  0  0  0  0  0  0  0
    3.9303    0.9921    1.3337 H   0  0  0  0  0  0  0  0  0  0  0  0
    2.2446    0.9969   -1.2028 H   0  0  0  0  0  0  0  0  0  0  0  0
    1.5434    2.0769    1.5536 H   0  0  0  0  0  0  0  0  0  0  0  0
    2.0359    3.0473    0.1687 H   0  0  0  0  0  0  0  0  0  0  0  0
   -0.4427    2.9457    0.3618 H   0  0  0  0  0  0  0  0  0  0  0  0
    0.1300    2.2355   -1.1485 H   0  0  0  0  0  0  0  0  0  0  0  0
   -0.6950    0.7429    1.3665 H   0  0  0  0  0  0  0  0  0  0  0  0
   -1.9079   -1.6764   -1.6109 H   0  0  0  0  0  0  0  0  0  0  0  0
  1  2  1  0
  1  3  1  0
  1  4  1  0
  5  1  1  1
  5  6  1  0
  5 14  1  0
  5 21  1  0
  6  7  1  0
  6  8  1  0
  6 51  1  0
  8  9  1  0
  8 10  1  0
  8 11  1  0
 11 12  1  6
 11 13  1  0
 11 37  1  0
 13 14  1  0
 13 26  1  0
 13 50  1  1
 14 15  1  0
 14 25  1  6
 15 16  1  0
 15 17  1  0
 15 18  1  0
 18 19  1  0
 18 20  1  0
 18 21  1  0
 21 22  1  0
 21 24  1  6
 22 23  1  0
 26 27  1  0
 26 48  1  0
 26 49  1  0
 27 28  1  0
 27 46  1  0
 27 47  1  0
 28 29  1  0
 28 37  1  0
 28 45  1  6
 29 30  1  0
 29 43  1  0
 29 44  1  0
 30 31  2  0
 30 32  1  0
 32 33  1  0
 32 34  1  0
 32 42  1  0
 34 35  1  0
 34 36  1  0
 34 37  1  0
 37 38  1  1
 38 39  1  0
 38 40  1  0
 38 41  1  0
M  END
$$$$

     RDKit          3D

 51 54  0  0  0  0  0  0  0  0999 V2000
   -2.9009   -0.6881    1.6133 C   0  0  0  0  0  0  0  0  0  0  0  0
   -3.5431    0.0961    2.0067 H   0  0  0  0  0  0  0  0  0  0  0  0
   -3.3454   -1.6546    1.8468 H   0  0  0  0  0  0  0  0  0  0  0  0
   -1.9501   -0.6283    2.1323 H   0  0  0  0  0  0  0  0  0  0  0  0
   -2.7251   -0.5590    0.0967 C   0  0  2  0  0  0  0  0  0  0  0  0
   -1.9411   -1.7478   -0.4530 C   0  0  0  0  0  0  0  0  0  0  0  0
   -2.4004   -2.6874   -0.1403 H   0  0  0  0  0  0  0  0  0  0  0  0
   -0.4897   -1.6957    0.0310 C   0  0  0  0  0  0  0  0  0  0  0  0
   -0.4764   -1.8312    1.1110 H   0  0  0  0  0  0  0  0  0  0  0  0
    0.0535   -2.5320   -0.4108 H   0  0  0  0  0  0  0  0  0  0  0  0
    0.2072   -0.3783   -0.3408 C   0  0  1  0  0  0  0  0  0  0  0  0
    0.1843   -0.2976   -1.4360 H   0  0  0  0  0  0  0  0  0  0  0  0
   -0.5819    0.8316    0.1951 C   0  0  2  0  0  0  0  0  0  0  0  0
   -2.0069    0.7251   -0.3408 C   0  0  2  0  0  0  0  0  0  0  0  0
   -3.0123    1.8298   -0.0116 C   0  0  0  0  0  0  0  0  0  0  0  0
   -2.8439    2.7247   -0.6084 H   0  0  0  0  0  0  0  0  0  0  0  0
   -2.9423    2.1111    1.0395 H   0  0  0  0  0  0  0  0  0  0  0  0
   -4.3742    1.1854   -0.3312 C   0  0  0  0  0  0  0  0  0  0  0  0
   -4.8261    1.6264   -1.2181 H   0  0  0  0  0  0  0  0  0  0  0  0
   -5.0820    1.3150    0.4893 H   0  0  0  0  0  0  0  0  0  0  0  0
   -4.1102   -0.3265   -0.5550 C   0  0  2  0  0  0  0  0  0  0  0  0
   -5.1461   -1.1563   -0.1084 O   0  0  0  0  0  0  0  0  0  0  0  0
   -5.2634   -1.0167    0.8384 H   0  0  0  0  0  0  0  0  0  0  0  0
   -4.0404   -0.5385   -1.6267 H   0  0  0  0  0  0  0  0  0  0  0  0
   -1.9316    0.6809   -1.4351 H   0  0  0  0  0  0  0  0  0  0  0  0
    0.0687    2.1346   -0.2667 C   0  0  0  0  0  0  0  0  0  0  0  0
    1.5251    2.1970    0.1696 C   0  0  0  0  0  0  0  0  0  0  0  0
    2.3079    1.0005   -0.3691 C   0  0  1  0  0  0  0  0  0  0  0  0
    3.7767    1.1118    0.0522 C   0  0  0  0  0  0  0  0  0  0  0  0
    4.5264   -0.1899   -0.0849 C   0  0  0  0  0  0  0  0  0  0  0  0
    5.5345   -0.4416    0.5270 O   0  0  0  0  0  0  0  0  0  0  0  0
    3.8956   -1.1203   -1.0859 C   0  0  0  0  0  0  0  0  0  0  0  0
    3.8991   -0.6012   -2.0472 H   0  0  0  0  0  0  0  0  0  0  0  0
    2.4509   -1.4762   -0.6945 C   0  0  0  0  0  0  0  0  0  0  0  0
    2.4726   -2.3701   -0.0706 H   0  0  0  0  0  0  0  0  0  0  0  0
    1.9106   -1.7277   -1.6092 H   0  0  0  0  0  0  0  0  0  0  0  0
    1.7050   -0.3541    0.0672 C   0  0  2  0  0  0  0  0  0  0  0  0
    1.9010   -0.5773    1.5703 C   0  0  0  0  0  0  0  0  0  0  0  0
    1.4663   -1.5247    1.8766 H   0  0  0  0  0  0  0  0  0  0  0  0
    1.4438    0.2131    2.1581 H   0  0  0  0  0  0  0  0  0  0  0  0
    2.9600   -0.6153    1.8113 H   0  0  0  0  0  0  0  0  0  0  0  0
    4.4955   -2.0257   -1.1828 H   0  0  0  0  0  0  0  0  0  0  0  0
    4.2870    1.8444   -0.5802 H   0  0  0  0  0  0  0  0  0  0  0  0
    3.8687    1.4706    1.0790 H   0  0  0  0  0  0  0  0  0  0  0  0
    2.2483    1.0372   -1.4631 H   0  0  0  0  0  0  0  0  0  0  0  0
    1.5801    2.2204    1.2592 H   0  0  0  0  0  0  0  0  0  0  0  0
    1.9824    3.1181   -0.1998 H   0  0  0  0  0  0  0  0  0  0  0  0
   -0.4757    2.9851    0.1467 H   0  0  0  0  0  0  0  0  0  0  0  0
    0.0114    2.1989   -1.3562 H   0  0  0  0  0  0  0  0  0  0  0  0
   -0.5924    0.8178    1.2872 H   0  0  0  0  0  0  0  0  0  0  0  0
   -1.9616   -1.7172   -1.5451 H   0  0  0  0  0  0  0  0  0  0  0  0
  1  2  1  0
  1  3  1  0
  1  4  1  0
  5  1  1  1
  5  6  1  0
  5 14  1  0
  5 21  1  0
  6  7  1  0
  6  8  1  0
  6 51  1  0
  8  9  1  0
  8 10  1  0
  8 11  1  0
 11 12  1  6
 11 13  1  0
 11 37  1  0
 13 14  1  0
 13 26  1  0
 13 50  1  1
 14 15  1  0
 14 25  1  6
 15 16  1  0
 15 17  1  0
 15 18  1  0
 18 19  1  0
 18 20  1  0
 18 21  1  0
 21 22  1  0
 21 24  1  6
 22 23  1  0
 26 27  1  0
 26 48  1  0
 26 49  1  0
 27 28  1  0
 27 46  1  0
 27 47  1  0
 28 29  1  0
 28 37  1  0
 28 45  1  6
 29 30  1  0
 29 43  1  0
 29 44  1  0
 30 31  2  0
 30 32  1  0
 32 33  1  0
 32 34  1  0
 32 42  1  0
 34 35  1  0
 34 36  1  0
 34 37  1  0
 37 38  1  1
 38 39  1  0
 38 40  1  0
 38 41  1  0
M  END
$$$$

     RDKit          3D

 51 54  0  0  0  0  0  0  0  0999 V2000
   -2.8319   -0.7461    1.6049 C   0  0  0  0  0  0  0  0  0  0  0  0
   -3.4364    0.0322    2.0641 H   0  0  0  0  0  0  0  0  0  0  0  0
   -3.2834   -1.7133    1.8201 H   0  0  0  0  0  0  0  0  0  0  0  0
   -1.8546   -0.7280    2.0756 H   0  0  0  0  0  0  0  0  0  0  0  0
   -2.7314   -0.5561    0.0878 C   0  0  2  0  0  0  0  0  0  0  0  0
   -1.9805   -1.7234   -0.5451 C   0  0  0  0  0  0  0  0  0  0  0  0
   -2.4334   -2.6738   -0.2553 H   0  0  0  0  0  0  0  0  0  0  0  0
   -0.5087   -1.7040   -0.1232 C   0  0  0  0  0  0  0  0  0  0  0  0
   -0.4415   -1.9016    0.9455 H   0  0  0  0  0  0  0  0  0  0  0  0
   -0.0032   -2.5195   -0.6412 H   0  0  0  0  0  0  0  0  0  0  0  0
    0.1892   -0.3755   -0.4534 C   0  0  1  0  0  0  0  0  0  0  0  0
    0.1525   -0.2539   -1.5442 H   0  0  0  0  0  0  0  0  0  0  0  0
   -0.5827    0.8181    0.1474 C   0  0  2  0  0  0  0  0  0  0  0  0
   -2.0272    0.7396   -0.3364 C   0  0  2  0  0  0  0  0  0  0  0  0
   -3.0082    1.8366    0.0821 C   0  0  0  0  0  0  0  0  0  0  0  0
   -2.8704    2.7483   -0.4967 H   0  0  0  0  0  0  0  0  0  0  0  0
   -2.8760    2.0863    1.1354 H   0  0  0  0  0  0  0  0  0  0  0  0
   -4.3904    1.2080   -0.1759 C   0  0  0  0  0  0  0  0  0  0  0  0
   -4.9002    1.6886   -1.0089 H   0  0  0  0  0  0  0  0  0  0  0  0
   -5.0410    1.2998    0.6956 H   0  0  0  0  0  0  0  0  0  0  0  0
   -4.1462   -0.2919   -0.4826 C   0  0  2  0  0  0  0  0  0  0  0  0
   -5.1627   -1.1388   -0.0226 O   0  0  0  0  0  0  0  0  0  0  0  0
   -5.2345   -1.0391    0.9337 H   0  0  0  0  0  0  0  0  0  0  0  0
   -4.1312   -0.4540   -1.5650 H   0  0  0  0  0  0  0  0  0  0  0  0
   -1.9992    0.7360   -1.4335 H   0  0  0  0  0  0  0  0  0  0  0  0
    0.0600    2.1380   -0.2749 C   0  0  0  0  0  0  0  0  0  0  0  0
    1.5248    2.1797    0.1365 C   0  0  0  0  0  0  0  0  0  0  0  0
    2.2820    1.0032   -0.4753 C   0  0  1  0  0  0  0  0  0  0  0  0
    3.7767    1.1175   -0.1496 C   0  0  0  0  0  0  0  0  0  0  0  0
    4.5325   -0.1743    0.0407 C   0  0  0  0  0  0  0  0  0  0  0  0
    5.5848   -0.1954    0.6354 O   0  0  0  0  0  0  0  0  0  0  0  0
    3.9571   -1.4337   -0.5601 C   0  0  0  0  0  0  0  0  0  0  0  0
    4.5296   -1.6314   -1.4709 H   0  0  0  0  0  0  0  0  0  0  0  0
    2.4595   -1.4070   -0.8786 C   0  0  0  0  0  0  0  0  0  0  0  0
    2.0581   -2.4033   -0.6944 H   0  0  0  0  0  0  0  0  0  0  0  0
    2.3097   -1.1876   -1.9381 H   0  0  0  0  0  0  0  0  0  0  0  0
    1.6910   -0.3592   -0.0550 C   0  0  2  0  0  0  0  0  0  0  0  0
    1.8911   -0.6381    1.4362 C   0  0  0  0  0  0  0  0  0  0  0  0
    1.6615   -1.6767    1.6602 H   0  0  0  0  0  0  0  0  0  0  0  0
    1.2554   -0.0067    2.0498 H   0  0  0  0  0  0  0  0  0  0  0  0
    2.9217   -0.4580    1.7300 H   0  0  0  0  0  0  0  0  0  0  0  0
    4.1956   -2.2457    0.1300 H   0  0  0  0  0  0  0  0  0  0  0  0
    4.2890    1.6570   -0.9520 H   0  0  0  0  0  0  0  0  0  0  0  0
    3.9288    1.7105    0.7562 H   0  0  0  0  0  0  0  0  0  0  0  0
    2.1582    1.0697   -1.5629 H   0  0  0  0  0  0  0  0  0  0  0  0
    1.6039    2.1485    1.2246 H   0  0  0  0  0  0  0  0  0  0  0  0
    1.9773    3.1152   -0.2016 H   0  0  0  0  0  0  0  0  0  0  0  0
   -0.4759    2.9708    0.1830 H   0  0  0  0  0  0  0  0  0  0  0  0
   -0.0173    2.2467   -1.3597 H   0  0  0  0  0  0  0  0  0  0  0  0
   -0.5637    0.7645    1.2382 H   0  0  0  0  0  0  0  0  0  0  0  0
   -2.0462   -1.6445   -1.6331 H   0  0  0  0  0  0  0  0  0  0  0  0
  1  2  1  0
  1  3  1  0
  1  4  1  0
  5  1  1  1
  5  6  1  0
  5 14  1  0
  5 21  1  0
  6  7  1  0
  6  8  1  0
  6 51  1  0
  8  9  1  0
  8 10  1  0
  8 11  1  0
 11 12  1  6
 11 13  1  0
 11 37  1  0
 13 14  1  0
 13 26  1  0
 13 50  1  1
 14 15  1  0
 14 25  1  6
 15 16  1  0
 15 17  1  0
 15 18  1  0
 18 19  1  0
 18 20  1  0
 18 21  1  0
 21 22  1  0
 21 24  1  6
 22 23  1  0
 26 27  1  0
 26 48  1  0
 26 49  1  0
 27 28  1  0
 27 46  1  0
 27 47  1  0
 28 29  1  0
 28 37  1  0
 28 45  1  6
 29 30  1  0
 29 43  1  0
 29 44  1  0
 30 31  2  0
 30 32  1  0
 32 33  1  0
 32 34  1  0
 32 42  1  0
 34 35  1  0
 34 36  1  0
 34 37  1  0
 37 38  1  1
 38 39  1  0
 38 40  1  0
 38 41  1  0
M  END
$$$$

     RDKit          3D

 51 54  0  0  0  0  0  0  0  0999 V2000
   -2.8386   -0.7568    1.5937 C   0  0  0  0  0  0  0  0  0  0  0  0
   -3.5131   -0.0254    2.0262 H   0  0  0  0  0  0  0  0  0  0  0  0
   -3.2424   -1.7447    1.8072 H   0  0  0  0  0  0  0  0  0  0  0  0
   -1.8755   -0.6731    2.0858 H   0  0  0  0  0  0  0  0  0  0  0  0
   -2.7280   -0.5627    0.0792 C   0  0  2  0  0  0  0  0  0  0  0  0
   -1.9718   -1.7244   -0.5602 C   0  0  0  0  0  0  0  0  0  0  0  0
   -2.4127   -2.6840   -0.2764 H   0  0  0  0  0  0  0  0  0  0  0  0
   -0.5030   -1.7013   -0.1279 C   0  0  0  0  0  0  0  0  0  0  0  0
   -0.4487   -1.8903    0.9427 H   0  0  0  0  0  0  0  0  0  0  0  0
    0.0089   -2.5195   -0.6359 H   0  0  0  0  0  0  0  0  0  0  0  0
    0.1938   -0.3730   -0.4597 C   0  0  1  0  0  0  0  0  0  0  0  0
    0.1565   -0.2514   -1.5506 H   0  0  0  0  0  0  0  0  0  0  0  0
   -0.5807    0.8171    0.1427 C   0  0  2  0  0  0  0  0  0  0  0  0
   -2.0254    0.7369   -0.3395 C   0  0  2  0  0  0  0  0  0  0  0  0
   -3.0103    1.8257    0.0883 C   0  0  0  0  0  0  0  0  0  0  0  0
   -2.8687    2.7481   -0.4726 H   0  0  0  0  0  0  0  0  0  0  0  0
   -2.8899    2.0529    1.1473 H   0  0  0  0  0  0  0  0  0  0  0  0
   -4.3876    1.1989   -0.1967 C   0  0  0  0  0  0  0  0  0  0  0  0
   -4.8767    1.6748   -1.0446 H   0  0  0  0  0  0  0  0  0  0  0  0
   -5.0582    1.2766    0.6575 H   0  0  0  0  0  0  0  0  0  0  0  0
   -4.1441   -0.2974   -0.4852 C   0  0  2  0  0  0  0  0  0  0  0  0
   -5.1764   -1.0561    0.0948 O   0  0  0  0  0  0  0  0  0  0  0  0
   -4.9939   -1.9894   -0.0539 H   0  0  0  0  0  0  0  0  0  0  0  0
   -4.1298   -0.4713   -1.5744 H   0  0  0  0  0  0  0  0  0  0  0  0
   -1.9994    0.7398   -1.4373 H   0  0  0  0  0  0  0  0  0  0  0  0
    0.0596    2.1386   -0.2778 C   0  0  0  0  0  0  0  0  0  0  0  0
    1.5233    2.1823    0.1372 C   0  0  0  0  0  0  0  0  0  0  0  0
    2.2857    1.0085   -0.4741 C   0  0  1  0  0  0  0  0  0  0  0  0
    3.7780    1.1236   -0.1358 C   0  0  0  0  0  0  0  0  0  0  0  0
    4.5233   -0.1735    0.0561 C   0  0  0  0  0  0  0  0  0  0  0  0
    5.5512   -0.2155    0.6908 O   0  0  0  0  0  0  0  0  0  0  0  0
    3.9683   -1.4089   -0.6095 C   0  0  0  0  0  0  0  0  0  0  0  0
    4.5226   -1.5251   -1.5453 H   0  0  0  0  0  0  0  0  0  0  0  0
    2.4615   -1.4022   -0.8915 C   0  0  0  0  0  0  0  0  0  0  0  0
    2.0755   -2.4006   -0.6881 H   0  0  0  0  0  0  0  0  0  0  0  0
    2.2840   -1.1952   -1.9493 H   0  0  0  0  0  0  0  0  0  0  0  0
    1.6957   -0.3568   -0.0616 C   0  0  2  0  0  0  0  0  0  0  0  0
    1.8960   -0.6442    1.4278 C   0  0  0  0  0  0  0  0  0  0  0  0
    2.9301   -0.4814    1.7187 H   0  0  0  0  0  0  0  0  0  0  0  0
    1.6521   -1.6803    1.6493 H   0  0  0  0  0  0  0  0  0  0  0  0
    1.2715   -0.0058    2.0453 H   0  0  0  0  0  0  0  0  0  0  0  0
    4.2466   -2.2581    0.0183 H   0  0  0  0  0  0  0  0  0  0  0  0
    4.2966    1.6616   -0.9347 H   0  0  0  0  0  0  0  0  0  0  0  0
    3.9233    1.7146    0.7721 H   0  0  0  0  0  0  0  0  0  0  0  0
    2.1695    1.0784   -1.5622 H   0  0  0  0  0  0  0  0  0  0  0  0
    1.5993    2.1493    1.2252 H   0  0  0  0  0  0  0  0  0  0  0  0
    1.9750    3.1190   -0.1981 H   0  0  0  0  0  0  0  0  0  0  0  0
   -0.4790    2.9696    0.1797 H   0  0  0  0  0  0  0  0  0  0  0  0
   -0.0151    2.2484   -1.3627 H   0  0  0  0  0  0  0  0  0  0  0  0
   -0.5606    0.7611    1.2329 H   0  0  0  0  0  0  0  0  0  0  0  0
   -2.0300   -1.6402   -1.6492 H   0  0  0  0  0  0  0  0  0  0  0  0
  1  2  1  0
  1  3  1  0
  1  4  1  0
  5  1  1  1
  5  6  1  0
  5 14  1  0
  5 21  1  0
  6  7  1  0
  6  8  1  0
  6 51  1  0
  8  9  1  0
  8 10  1  0
  8 11  1  0
 11 12  1  6
 11 13  1  0
 11 37  1  0
 13 14  1  0
 13 26  1  0
 13 50  1  1
 14 15  1  0
 14 25  1  6
 15 16  1  0
 15 17  1  0
 15 18  1  0
 18 19  1  0
 18 20  1  0
 18 21  1  0
 21 22  1  0
 21 24  1  6
 22 23  1  0
 26 27  1  0
 26 48  1  0
 26 49  1  0
 27 28  1  0
 27 46  1  0
 27 47  1  0
 28 29  1  0
 28 37  1  0
 28 45  1  6
 29 30  1  0
 29 43  1  0
 29 44  1  0
 30 31  2  0
 30 32  1  0
 32 33  1  0
 32 34  1  0
 32 42  1  0
 34 35  1  0
 34 36  1  0
 34 37  1  0
 37 38  1  1
 38 39  1  0
 38 40  1  0
 38 41  1  0
M  END
$$$$
