
     RDKit          3D

 29 30  0  0  0  0  0  0  0  0999 V2000
   -6.2702   -0.3453    0.0012 O   0  0  0  0  0  0  0  0  0  0  0  0
   -4.9279   -0.1297    0.0005 C   0  0  0  0  0  0  0  0  0  0  0  0
   -4.3803    1.1481   -0.0038 C   0  0  0  0  0  0  0  0  0  0  0  0
   -3.0108    1.3131   -0.0038 C   0  0  0  0  0  0  0  0  0  0  0  0
   -2.1428    0.2177   -0.0001 C   0  0  0  0  0  0  0  0  0  0  0  0
   -2.7133   -1.0597    0.0042 C   0  0  0  0  0  0  0  0  0  0  0  0
   -4.0790   -1.2340    0.0047 C   0  0  0  0  0  0  0  0  0  0  0  0
   -4.5160   -2.2201    0.0084 H   0  0  0  0  0  0  0  0  0  0  0  0
   -2.0802   -1.9328    0.0081 H   0  0  0  0  0  0  0  0  0  0  0  0
   -0.7141    0.4609    0.0003 C   0  0  0  0  0  0  0  0  0  0  0  0
    0.2558   -0.4651   -0.0037 C   0  0  0  0  0  0  0  0  0  0  0  0
    1.6851   -0.2149   -0.0027 C   0  0  0  0  0  0  0  0  0  0  0  0
    2.2351    1.0648   -0.0008 C   0  0  0  0  0  0  0  0  0  0  0  0
    3.6121    1.2392    0.0015 C   0  0  0  0  0  0  0  0  0  0  0  0
    4.4621    0.1424    0.0016 C   0  0  0  0  0  0  0  0  0  0  0  0
    3.9231   -1.1389   -0.0007 C   0  0  0  0  0  0  0  0  0  0  0  0
    2.5495   -1.3140   -0.0029 C   0  0  0  0  0  0  0  0  0  0  0  0
    2.1404   -2.3162   -0.0046 H   0  0  0  0  0  0  0  0  0  0  0  0
    4.7877   -2.1908   -0.0003 O   0  0  0  0  0  0  0  0  0  0  0  0
    4.2911   -3.0177   -0.0045 H   0  0  0  0  0  0  0  0  0  0  0  0
    5.5355    0.2612    0.0038 H   0  0  0  0  0  0  0  0  0  0  0  0
    4.0941    2.5116    0.0036 O   0  0  0  0  0  0  0  0  0  0  0  0
    5.0586    2.4926    0.0050 H   0  0  0  0  0  0  0  0  0  0  0  0
    1.6164    1.9455   -0.0011 H   0  0  0  0  0  0  0  0  0  0  0  0
   -0.0123   -1.5132   -0.0083 H   0  0  0  0  0  0  0  0  0  0  0  0
   -0.4429    1.5079    0.0032 H   0  0  0  0  0  0  0  0  0  0  0  0
   -2.6008    2.3131   -0.0069 H   0  0  0  0  0  0  0  0  0  0  0  0
   -5.0325    2.0122   -0.0066 H   0  0  0  0  0  0  0  0  0  0  0  0
   -6.7375    0.4989   -0.0016 H   0  0  0  0  0  0  0  0  0  0  0  0
  1  2  1  0
  1 29  1  0
  2  3  2  0
  2  7  1  0
  3  4  1  0
  3 28  1  0
  4  5  2  0
  4 27  1  0
  5  6  1  0
  5 10  1  0
  6  7  2  0
  6  9  1  0
  7  8  1  0
 10 11  2  0
 10 26  1  0
 11 12  1  0
 11 25  1  0
 12 13  2  0
 12 17  1  0
 13 14  1  0
 13 24  1  0
 14 15  2  0
 14 22  1  0
 15 16  1  0
 15 21  1  0
 16 17  2  0
 16 19  1  0
 17 18  1  0
 19 20  1  0
 22 23  1  0
M  END
$$$$

     RDKit          3D

 29 30  0  0  0  0  0  0  0  0999 V2000
   -6.2680   -0.3512    0.0057 O   0  0  0  0  0  0  0  0  0  0  0  0
   -4.9266   -0.1322   -0.0030 C   0  0  0  0  0  0  0  0  0  0  0  0
   -4.0760   -1.2220    0.1678 C   0  0  0  0  0  0  0  0  0  0  0  0
   -2.7108   -1.0445    0.1643 C   0  0  0  0  0  0  0  0  0  0  0  0
   -2.1425    0.2220   -0.0089 C   0  0  0  0  0  0  0  0  0  0  0  0
   -3.0119    1.3036   -0.1742 C   0  0  0  0  0  0  0  0  0  0  0  0
   -4.3810    1.1350   -0.1737 C   0  0  0  0  0  0  0  0  0  0  0  0
   -5.0343    1.9882   -0.3055 H   0  0  0  0  0  0  0  0  0  0  0  0
   -2.6043    2.2956   -0.3086 H   0  0  0  0  0  0  0  0  0  0  0  0
   -0.7139    0.4663   -0.0218 C   0  0  0  0  0  0  0  0  0  0  0  0
    0.2558   -0.4576    0.0453 C   0  0  0  0  0  0  0  0  0  0  0  0
    1.6859   -0.2135    0.0271 C   0  0  0  0  0  0  0  0  0  0  0  0
    2.5456   -1.3117   -0.0372 C   0  0  0  0  0  0  0  0  0  0  0  0
    3.9217   -1.1394   -0.0619 C   0  0  0  0  0  0  0  0  0  0  0  0
    4.4660    0.1367   -0.0167 C   0  0  0  0  0  0  0  0  0  0  0  0
    3.6195    1.2353    0.0539 C   0  0  0  0  0  0  0  0  0  0  0  0
    2.2433    1.0645    0.0752 C   0  0  0  0  0  0  0  0  0  0  0  0
    1.6067    1.9352    0.1384 H   0  0  0  0  0  0  0  0  0  0  0  0
    4.1878    2.4706    0.1018 O   0  0  0  0  0  0  0  0  0  0  0  0
    3.4988    3.1441    0.1512 H   0  0  0  0  0  0  0  0  0  0  0  0
    5.5334    0.2739   -0.0333 H   0  0  0  0  0  0  0  0  0  0  0  0
    4.7771   -2.1948   -0.1283 O   0  0  0  0  0  0  0  0  0  0  0  0
    4.2760   -3.0188   -0.1540 H   0  0  0  0  0  0  0  0  0  0  0  0
    2.1321   -2.3114   -0.0733 H   0  0  0  0  0  0  0  0  0  0  0  0
   -0.0149   -1.5032    0.1054 H   0  0  0  0  0  0  0  0  0  0  0  0
   -0.4459    1.5111   -0.1080 H   0  0  0  0  0  0  0  0  0  0  0  0
   -2.0764   -1.9054    0.3036 H   0  0  0  0  0  0  0  0  0  0  0  0
   -4.5115   -2.1995    0.3027 H   0  0  0  0  0  0  0  0  0  0  0  0
   -6.7376    0.4821   -0.1212 H   0  0  0  0  0  0  0  0  0  0  0  0
  1  2  1  0
  1 29  1  0
  2  3  2  0
  2  7  1  0
  3  4  1  0
  3 28  1  0
  4  5  2  0
  4 27  1  0
  5  6  1  0
  5 10  1  0
  6  7  2  0
  6  9  1  0
  7  8  1  0
 10 11  2  0
 10 26  1  0
 11 12  1  0
 11 25  1  0
 12 13  2  0
 12 17  1  0
 13 14  1  0
 13 24  1  0
 14 15  2  0
 14 22  1  0
 15 16  1  0
 15 21  1  0
 16 17  2  0
 16 19  1  0
 17 18  1  0
 19 20  1  0
 22 23  1  0
M  END
$$$$
