
     RDKit          3D

 36 38  0  0  0  0  0  0  0  0999 V2000
   -5.5313   -2.1172   -0.3046 C   0  0  0  0  0  0  0  0  0  0  0  0
   -6.5795   -1.9887   -0.0404 H   0  0  0  0  0  0  0  0  0  0  0  0
   -4.8397   -1.0994    0.3807 O   0  0  0  0  0  0  0  0  0  0  0  0
   -3.4934   -1.0171    0.2422 C   0  0  0  0  0  0  0  0  0  0  0  0
   -2.7168   -1.8632   -0.5444 C   0  0  0  0  0  0  0  0  0  0  0  0
   -1.3484   -1.6773   -0.6162 C   0  0  0  0  0  0  0  0  0  0  0  0
   -0.7383   -0.6505    0.0895 C   0  0  0  0  0  0  0  0  0  0  0  0
   -1.5062    0.1837    0.8986 C   0  0  0  0  0  0  0  0  0  0  0  0
   -2.8687    0.0040    0.9652 C   0  0  0  0  0  0  0  0  0  0  0  0
   -3.4807    0.6403    1.5836 H   0  0  0  0  0  0  0  0  0  0  0  0
   -1.0354    0.9633    1.4766 H   0  0  0  0  0  0  0  0  0  0  0  0
    0.6563   -0.5012    0.0097 N   0  0  0  0  0  0  0  0  0  0  0  0
    1.4294   -1.5779    0.0048 N   0  0  0  0  0  0  0  0  0  0  0  0
    2.6876   -1.1401    0.0025 C   0  0  0  0  0  0  0  0  0  0  0  0
    2.7171    0.2637    0.0071 C   0  0  0  0  0  0  0  0  0  0  0  0
    1.3899    0.6491    0.0054 C   0  0  0  0  0  0  0  0  0  0  0  0
    0.8320    1.9930   -0.0835 C   0  0  0  0  0  0  0  0  0  0  0  0
    1.3918    3.0200    0.6730 C   0  0  0  0  0  0  0  0  0  0  0  0
    0.8953    4.3066    0.5776 C   0  0  0  0  0  0  0  0  0  0  0  0
   -0.1580    4.5843   -0.2777 C   0  0  0  0  0  0  0  0  0  0  0  0
   -0.7089    3.5706   -1.0447 C   0  0  0  0  0  0  0  0  0  0  0  0
   -0.2187    2.2820   -0.9527 C   0  0  0  0  0  0  0  0  0  0  0  0
   -0.6421    1.4987   -1.5645 H   0  0  0  0  0  0  0  0  0  0  0  0
   -1.5224    3.7856   -1.7216 H   0  0  0  0  0  0  0  0  0  0  0  0
   -0.5454    5.5893   -0.3509 H   0  0  0  0  0  0  0  0  0  0  0  0
    1.3320    5.0951    1.1723 H   0  0  0  0  0  0  0  0  0  0  0  0
    2.2093    2.7988    1.3430 H   0  0  0  0  0  0  0  0  0  0  0  0
    3.5859    0.8868   -0.0133 H   0  0  0  0  0  0  0  0  0  0  0  0
    3.8063   -2.0992   -0.0021 C   0  0  0  0  0  0  0  0  0  0  0  0
    4.9655   -1.7843   -0.0125 O   0  0  0  0  0  0  0  0  0  0  0  0
    3.4104   -3.3831    0.0066 O   0  0  0  0  0  0  0  0  0  0  0  0
    2.4397   -3.4210    0.0228 H   0  0  0  0  0  0  0  0  0  0  0  0
   -0.7416   -2.3310   -1.2233 H   0  0  0  0  0  0  0  0  0  0  0  0
   -3.1632   -2.6675   -1.1065 H   0  0  0  0  0  0  0  0  0  0  0  0
   -5.1983   -3.1109    0.0104 H   0  0  0  0  0  0  0  0  0  0  0  0
   -5.4175   -2.0202   -1.3889 H   0  0  0  0  0  0  0  0  0  0  0  0
  1  2  1  0
  1  3  1  0
  1 35  1  0
  1 36  1  0
  3  4  1  0
  4  5  2  0
  4  9  1  0
  5  6  1  0
  5 34  1  0
  6  7  2  0
  6 33  1  0
  7  8  1  0
  7 12  1  0
  8  9  2  0
  8 11  1  0
  9 10  1  0
 12 13  1  0
 12 16  1  0
 13 14  2  0
 14 15  1  0
 14 29  1  0
 15 16  2  0
 15 28  1  0
 16 17  1  0
 17 18  2  0
 17 22  1  0
 18 19  1  0
 18 27  1  0
 19 20  2  0
 19 26  1  0
 20 21  1  0
 20 25  1  0
 21 22  2  0
 21 24  1  0
 22 23  1  0
 29 30  2  0
 29 31  1  0
 31 32  1  0
M  END
$$$$

     RDKit          3D

 36 38  0  0  0  0  0  0  0  0999 V2000
   -5.5703   -1.3425   -0.6739 C   0  0  0  0  0  0  0  0  0  0  0  0
   -5.6599   -0.2906   -0.3853 H   0  0  0  0  0  0  0  0  0  0  0  0
   -4.5842   -2.0040    0.0833 O   0  0  0  0  0  0  0  0  0  0  0  0
   -3.3019   -1.5699    0.0093 C   0  0  0  0  0  0  0  0  0  0  0  0
   -2.8634   -0.5004   -0.7672 C   0  0  0  0  0  0  0  0  0  0  0  0
   -1.5283   -0.1395   -0.7647 C   0  0  0  0  0  0  0  0  0  0  0  0
   -0.6187   -0.8302    0.0234 C   0  0  0  0  0  0  0  0  0  0  0  0
   -1.0474   -1.9130    0.7867 C   0  0  0  0  0  0  0  0  0  0  0  0
   -2.3742   -2.2768    0.7800 C   0  0  0  0  0  0  0  0  0  0  0  0
   -2.7255   -3.1092    1.3679 H   0  0  0  0  0  0  0  0  0  0  0  0
   -0.3286   -2.4571    1.3787 H   0  0  0  0  0  0  0  0  0  0  0  0
    0.7430   -0.4843    0.0324 N   0  0  0  0  0  0  0  0  0  0  0  0
    1.6611   -1.4399    0.0188 N   0  0  0  0  0  0  0  0  0  0  0  0
    2.8424   -0.8282   -0.0488 C   0  0  0  0  0  0  0  0  0  0  0  0
    2.6711    0.5651   -0.0803 C   0  0  0  0  0  0  0  0  0  0  0  0
    1.3041    0.7583   -0.0200 C   0  0  0  0  0  0  0  0  0  0  0  0
    0.5635    2.0105    0.0727 C   0  0  0  0  0  0  0  0  0  0  0  0
   -0.4744    2.1681    0.9898 C   0  0  0  0  0  0  0  0  0  0  0  0
   -1.1403    3.3753    1.0835 C   0  0  0  0  0  0  0  0  0  0  0  0
   -0.7797    4.4374    0.2703 C   0  0  0  0  0  0  0  0  0  0  0  0
    0.2596    4.2916   -0.6334 C   0  0  0  0  0  0  0  0  0  0  0  0
    0.9314    3.0874   -0.7308 C   0  0  0  0  0  0  0  0  0  0  0  0
    1.7391    2.9686   -1.4376 H   0  0  0  0  0  0  0  0  0  0  0  0
    0.5485    5.1192   -1.2640 H   0  0  0  0  0  0  0  0  0  0  0  0
   -1.3038    5.3784    0.3455 H   0  0  0  0  0  0  0  0  0  0  0  0
   -1.9416    3.4891    1.7986 H   0  0  0  0  0  0  0  0  0  0  0  0
   -0.7496    1.3482    1.6372 H   0  0  0  0  0  0  0  0  0  0  0  0
    3.4421    1.3053   -0.1137 H   0  0  0  0  0  0  0  0  0  0  0  0
    4.0863   -1.6179   -0.0828 C   0  0  0  0  0  0  0  0  0  0  0  0
    5.1870   -1.1402   -0.1402 O   0  0  0  0  0  0  0  0  0  0  0  0
    3.8798   -2.9446   -0.0444 O   0  0  0  0  0  0  0  0  0  0  0  0
    2.9254   -3.1227   -0.0078 H   0  0  0  0  0  0  0  0  0  0  0  0
   -1.1973    0.6797   -1.3842 H   0  0  0  0  0  0  0  0  0  0  0  0
   -3.5484    0.0552   -1.3869 H   0  0  0  0  0  0  0  0  0  0  0  0
   -6.5039   -1.8569   -0.4528 H   0  0  0  0  0  0  0  0  0  0  0  0
   -5.3656   -1.4108   -1.7468 H   0  0  0  0  0  0  0  0  0  0  0  0
  1  2  1  0
  1  3  1  0
  1 35  1  0
  1 36  1  0
  3  4  1  0
  4  5  2  0
  4  9  1  0
  5  6  1  0
  5 34  1  0
  6  7  2  0
  6 33  1  0
  7  8  1  0
  7 12  1  0
  8  9  2  0
  8 11  1  0
  9 10  1  0
 12 13  1  0
 12 16  1  0
 13 14  2  0
 14 15  1  0
 14 29  1  0
 15 16  2  0
 15 28  1  0
 16 17  1  0
 17 18  2  0
 17 22  1  0
 18 19  1  0
 18 27  1  0
 19 20  2  0
 19 26  1  0
 20 21  1  0
 20 25  1  0
 21 22  2  0
 21 24  1  0
 22 23  1  0
 29 30  2  0
 29 31  1  0
 31 32  1  0
M  END
$$$$

     RDKit          3D

 36 38  0  0  0  0  0  0  0  0999 V2000
   -5.2853   -2.2421    0.8450 C   0  0  0  0  0  0  0  0  0  0  0  0
   -6.3200   -2.3687    0.5315 H   0  0  0  0  0  0  0  0  0  0  0  0
   -4.6177   -1.6881   -0.2651 O   0  0  0  0  0  0  0  0  0  0  0  0
   -3.2932   -1.4211   -0.1649 C   0  0  0  0  0  0  0  0  0  0  0  0
   -2.5158   -1.6473    0.9677 C   0  0  0  0  0  0  0  0  0  0  0  0
   -1.1703   -1.3268    0.9574 C   0  0  0  0  0  0  0  0  0  0  0  0
   -0.5866   -0.7800   -0.1743 C   0  0  0  0  0  0  0  0  0  0  0  0
   -1.3527   -0.5707   -1.3151 C   0  0  0  0  0  0  0  0  0  0  0  0
   -2.6931   -0.8840   -1.3073 C   0  0  0  0  0  0  0  0  0  0  0  0
   -3.3054   -0.7286   -2.1809 H   0  0  0  0  0  0  0  0  0  0  0  0
   -0.8943   -0.1792   -2.2092 H   0  0  0  0  0  0  0  0  0  0  0  0
    0.7893   -0.4524   -0.1540 N   0  0  0  0  0  0  0  0  0  0  0  0
    1.7135   -1.3988   -0.1169 N   0  0  0  0  0  0  0  0  0  0  0  0
    2.8858   -0.7723   -0.0212 C   0  0  0  0  0  0  0  0  0  0  0  0
    2.6963    0.6195    0.0245 C   0  0  0  0  0  0  0  0  0  0  0  0
    1.3310    0.7927   -0.0660 C   0  0  0  0  0  0  0  0  0  0  0  0
    0.5209    2.0128   -0.0054 C   0  0  0  0  0  0  0  0  0  0  0  0
    0.4307    2.7049    1.1983 C   0  0  0  0  0  0  0  0  0  0  0  0
   -0.3323    3.8546    1.2852 C   0  0  0  0  0  0  0  0  0  0  0  0
   -1.0088    4.3253    0.1723 C   0  0  0  0  0  0  0  0  0  0  0  0
   -0.9109    3.6485   -1.0313 C   0  0  0  0  0  0  0  0  0  0  0  0
   -0.1487    2.4981   -1.1227 C   0  0  0  0  0  0  0  0  0  0  0  0
   -0.0547    1.9878   -2.0693 H   0  0  0  0  0  0  0  0  0  0  0  0
   -1.4270    4.0194   -1.9044 H   0  0  0  0  0  0  0  0  0  0  0  0
   -1.6057    5.2224    0.2415 H   0  0  0  0  0  0  0  0  0  0  0  0
   -0.3984    4.3847    2.2237 H   0  0  0  0  0  0  0  0  0  0  0  0
    0.9603    2.3342    2.0638 H   0  0  0  0  0  0  0  0  0  0  0  0
    3.4529    1.3710    0.1029 H   0  0  0  0  0  0  0  0  0  0  0  0
    4.1372   -1.5480    0.0324 C   0  0  0  0  0  0  0  0  0  0  0  0
    5.2306   -1.0606    0.1333 O   0  0  0  0  0  0  0  0  0  0  0  0
    3.9472   -2.8762   -0.0394 O   0  0  0  0  0  0  0  0  0  0  0  0
    2.9967   -3.0627   -0.1163 H   0  0  0  0  0  0  0  0  0  0  0  0
   -0.5668   -1.5029    1.8349 H   0  0  0  0  0  0  0  0  0  0  0  0
   -2.9442   -2.0697    1.8623 H   0  0  0  0  0  0  0  0  0  0  0  0
   -5.2489   -1.5727    1.7100 H   0  0  0  0  0  0  0  0  0  0  0  0
   -4.8687   -3.2164    1.1183 H   0  0  0  0  0  0  0  0  0  0  0  0
  1  2  1  0
  1  3  1  0
  1 35  1  0
  1 36  1  0
  3  4  1  0
  4  5  2  0
  4  9  1  0
  5  6  1  0
  5 34  1  0
  6  7  2  0
  6 33  1  0
  7  8  1  0
  7 12  1  0
  8  9  2  0
  8 11  1  0
  9 10  1  0
 12 13  1  0
 12 16  1  0
 13 14  2  0
 14 15  1  0
 14 29  1  0
 15 16  2  0
 15 28  1  0
 16 17  1  0
 17 18  2  0
 17 22  1  0
 18 19  1  0
 18 27  1  0
 19 20  2  0
 19 26  1  0
 20 21  1  0
 20 25  1  0
 21 22  2  0
 21 24  1  0
 22 23  1  0
 29 30  2  0
 29 31  1  0
 31 32  1  0
M  END
$$$$

     RDKit          3D

 36 38  0  0  0  0  0  0  0  0999 V2000
   -5.6028   -2.0516   -0.2660 C   0  0  0  0  0  0  0  0  0  0  0  0
   -5.2887   -3.0297    0.1110 H   0  0  0  0  0  0  0  0  0  0  0  0
   -4.9027   -1.0054    0.3661 O   0  0  0  0  0  0  0  0  0  0  0  0
   -3.5527   -0.9558    0.2417 C   0  0  0  0  0  0  0  0  0  0  0  0
   -2.7825   -1.8585   -0.4868 C   0  0  0  0  0  0  0  0  0  0  0  0
   -1.4107   -1.7018   -0.5518 C   0  0  0  0  0  0  0  0  0  0  0  0
   -0.7911   -0.6468    0.1030 C   0  0  0  0  0  0  0  0  0  0  0  0
   -1.5512    0.2427    0.8578 C   0  0  0  0  0  0  0  0  0  0  0  0
   -2.9180    0.0910    0.9168 C   0  0  0  0  0  0  0  0  0  0  0  0
   -3.5249    0.7698    1.4939 H   0  0  0  0  0  0  0  0  0  0  0  0
   -1.0749    1.0423    1.4032 H   0  0  0  0  0  0  0  0  0  0  0  0
    0.6077   -0.5354    0.0249 N   0  0  0  0  0  0  0  0  0  0  0  0
    1.3415   -1.6336    0.0128 N   0  0  0  0  0  0  0  0  0  0  0  0
    2.6116   -1.2495    0.0080 C   0  0  0  0  0  0  0  0  0  0  0  0
    2.6872    0.1607    0.0192 C   0  0  0  0  0  0  0  0  0  0  0  0
    1.3746    0.5923    0.0181 C   0  0  0  0  0  0  0  0  0  0  0  0
    0.8686    1.9562   -0.0817 C   0  0  0  0  0  0  0  0  0  0  0  0
   -0.1470    2.2787   -0.9805 C   0  0  0  0  0  0  0  0  0  0  0  0
   -0.5885    3.5832   -1.0901 C   0  0  0  0  0  0  0  0  0  0  0  0
   -0.0231    4.5802   -0.3115 C   0  0  0  0  0  0  0  0  0  0  0  0
    0.9943    4.2690    0.5748 C   0  0  0  0  0  0  0  0  0  0  0  0
    1.4418    2.9657    0.6879 C   0  0  0  0  0  0  0  0  0  0  0  0
    2.2295    2.7199    1.3851 H   0  0  0  0  0  0  0  0  0  0  0  0
    1.4408    5.0435    1.1805 H   0  0  0  0  0  0  0  0  0  0  0  0
   -0.3723    5.5981   -0.3985 H   0  0  0  0  0  0  0  0  0  0  0  0
   -1.3752    3.8239   -1.7894 H   0  0  0  0  0  0  0  0  0  0  0  0
   -0.5814    1.5064   -1.5983 H   0  0  0  0  0  0  0  0  0  0  0  0
    3.5532    0.7930   -0.0190 H   0  0  0  0  0  0  0  0  0  0  0  0
    3.7018   -2.2424   -0.0254 C   0  0  0  0  0  0  0  0  0  0  0  0
    3.5519   -3.4116   -0.2367 O   0  0  0  0  0  0  0  0  0  0  0  0
    4.9375   -1.7354    0.1975 O   0  0  0  0  0  0  0  0  0  0  0  0
    4.9166   -0.7849    0.3663 H   0  0  0  0  0  0  0  0  0  0  0  0
   -0.8028   -2.4013   -1.1034 H   0  0  0  0  0  0  0  0  0  0  0  0
   -3.2369   -2.6863   -1.0064 H   0  0  0  0  0  0  0  0  0  0  0  0
   -5.4757   -2.0208   -1.3526 H   0  0  0  0  0  0  0  0  0  0  0  0
   -6.6518   -1.8919   -0.0222 H   0  0  0  0  0  0  0  0  0  0  0  0
  1  2  1  0
  1  3  1  0
  1 35  1  0
  1 36  1  0
  3  4  1  0
  4  5  2  0
  4  9  1  0
  5  6  1  0
  5 34  1  0
  6  7  2  0
  6 33  1  0
  7  8  1  0
  7 12  1  0
  8  9  2  0
  8 11  1  0
  9 10  1  0
 12 13  1  0
 12 16  1  0
 13 14  2  0
 14 15  1  0
 14 29  1  0
 15 16  2  0
 15 28  1  0
 16 17  1  0
 17 18  2  0
 17 22  1  0
 18 19  1  0
 18 27  1  0
 19 20  2  0
 19 26  1  0
 20 21  1  0
 20 25  1  0
 21 22  2  0
 21 24  1  0
 22 23  1  0
 29 30  2  0
 29 31  1  0
 31 32  1  0
M  END
$$$$
