
     RDKit          3D

 15 15  0  0  0  0  0  0  0  0999 V2000
   -1.3818   -2.6711    0.0226 C   0  0  0  0  0  0  0  0  0  0  0  0
   -0.9217   -1.2581    0.1308 C   0  0  0  0  0  0  0  0  0  0  0  0
   -1.6712   -0.1839   -0.1440 C   0  0  0  0  0  0  0  0  0  0  0  0
   -1.2412    1.2003    0.0563 C   0  0  0  0  0  0  0  0  0  0  0  0
   -1.9695    2.1596    0.0060 O   0  0  0  0  0  0  0  0  0  0  0  0
    0.1001    1.3103    0.3941 N   0  0  0  0  0  0  0  0  0  0  0  0
    1.1566    0.1108   -0.0625 S   0  0  2  0  0  0  0  0  0  0  0  0
    2.3735    0.2719    0.6352 O   0  0  0  0  0  0  0  0  0  0  0  0
    1.1543   -0.0223   -1.4750 O   0  0  0  0  0  0  0  0  0  0  0  0
    0.3727   -1.1417    0.5604 O   0  0  0  0  0  0  0  0  0  0  0  0
    0.4569    2.2413    0.5438 H   0  0  0  0  0  0  0  0  0  0  0  0
   -2.6939   -0.3037   -0.4630 H   0  0  0  0  0  0  0  0  0  0  0  0
   -0.8370   -3.1638   -0.7819 H   0  0  0  0  0  0  0  0  0  0  0  0
   -2.4470   -2.7170   -0.1776 H   0  0  0  0  0  0  0  0  0  0  0  0
   -1.1529   -3.2000    0.9457 H   0  0  0  0  0  0  0  0  0  0  0  0
  1  2  1  0
  1 13  1  0
  1 14  1  0
  1 15  1  0
  2  3  2  0
  2 10  1  0
  3  4  1  0
  3 12  1  0
  4  5  2  0
  4  6  1  0
  6  7  1  0
  6 11  1  0
  7  8  2  0
  7  9  2  0
  7 10  1  1
M  END
$$$$
