
     RDKit          3D

 28 29  0  0  0  0  0  0  0  0999 V2000
   -4.0632   -1.1373    1.2335 O   0  0  0  0  0  0  0  0  0  0  0  0
   -4.5699   -0.4089    0.4278 C   0  0  0  0  0  0  0  0  0  0  0  0
   -5.8763   -0.1354    0.3974 O   0  0  0  0  0  0  0  0  0  0  0  0
   -6.3398   -0.5935    1.1169 H   0  0  0  0  0  0  0  0  0  0  0  0
   -3.8317    0.3013   -0.6916 C   0  0  0  0  0  0  0  0  0  0  0  0
   -2.4209    0.0496   -0.6381 N   0  0  0  0  0  0  0  0  0  0  0  0
   -1.5228    1.0236   -0.4238 C   0  0  0  0  0  0  0  0  0  0  0  0
   -1.8166    2.2212   -0.3901 O   0  0  0  0  0  0  0  0  0  0  0  0
   -0.1327    0.5528   -0.2659 C   0  0  0  0  0  0  0  0  0  0  0  0
    0.0740   -0.7799   -0.3293 N   0  0  0  0  0  0  0  0  0  0  0  0
    1.2716   -1.2468   -0.1892 C   0  0  0  0  0  0  0  0  0  0  0  0
    2.4262   -0.4474    0.0360 C   0  0  0  0  0  0  0  0  0  0  0  0
    3.7255   -0.9588    0.1915 C   0  0  0  0  0  0  0  0  0  0  0  0
    4.7792   -0.1095    0.4064 C   0  0  0  0  0  0  0  0  0  0  0  0
    4.5781    1.2752    0.4736 C   0  0  0  0  0  0  0  0  0  0  0  0
    3.3221    1.8011    0.3251 C   0  0  0  0  0  0  0  0  0  0  0  0
    2.2226    0.9540    0.1041 C   0  0  0  0  0  0  0  0  0  0  0  0
    0.8964    1.4637   -0.0546 C   0  0  0  0  0  0  0  0  0  0  0  0
    0.6921    2.7767    0.0038 O   0  0  0  0  0  0  0  0  0  0  0  0
   -0.2826    2.9300   -0.1240 H   0  0  0  0  0  0  0  0  0  0  0  0
    3.1445    2.8639    0.3737 H   0  0  0  0  0  0  0  0  0  0  0  0
    5.4219    1.9267    0.6438 H   0  0  0  0  0  0  0  0  0  0  0  0
    5.7760   -0.5072    0.5256 H   0  0  0  0  0  0  0  0  0  0  0  0
    3.8750   -2.0260    0.1389 H   0  0  0  0  0  0  0  0  0  0  0  0
    1.4242   -2.9592   -0.2913 Cl  0  0  0  0  0  0  0  0  0  0  0  0
   -2.0849   -0.8999   -0.5407 H   0  0  0  0  0  0  0  0  0  0  0  0
   -3.9837    1.3819   -0.5956 H   0  0  0  0  0  0  0  0  0  0  0  0
   -4.2591   -0.0236   -1.6473 H   0  0  0  0  0  0  0  0  0  0  0  0
  1  2  2  0
  2  3  1  0
  2  5  1  0
  3  4  1  0
  5  6  1  0
  5 27  1  0
  5 28  1  0
  6  7  1  0
  6 26  1  0
  7  8  2  0
  7  9  1  0
  9 10  2  0
  9 18  1  0
 10 11  1  0
 11 12  2  0
 11 25  1  0
 12 13  1  0
 12 17  1  0
 13 14  2  0
 13 24  1  0
 14 15  1  0
 14 23  1  0
 15 16  2  0
 15 22  1  0
 16 17  1  0
 16 21  1  0
 17 18  2  0
 18 19  1  0
 19 20  1  0
M  END
$$$$

     RDKit          3D

 28 29  0  0  0  0  0  0  0  0999 V2000
   -5.8325   -0.3538    0.4508 O   0  0  0  0  0  0  0  0  0  0  0  0
   -4.6351   -0.3357    0.3897 C   0  0  0  0  0  0  0  0  0  0  0  0
   -3.8434   -0.8299    1.3434 O   0  0  0  0  0  0  0  0  0  0  0  0
   -4.3713   -1.1761    2.0801 H   0  0  0  0  0  0  0  0  0  0  0  0
   -3.8470    0.2424   -0.7740 C   0  0  0  0  0  0  0  0  0  0  0  0
   -2.4354    0.0115   -0.6832 N   0  0  0  0  0  0  0  0  0  0  0  0
   -1.5529    0.9954   -0.4517 C   0  0  0  0  0  0  0  0  0  0  0  0
   -1.8599    2.1888   -0.4073 O   0  0  0  0  0  0  0  0  0  0  0  0
   -0.1595    0.5371   -0.2821 C   0  0  0  0  0  0  0  0  0  0  0  0
    0.0587   -0.7943   -0.3389 N   0  0  0  0  0  0  0  0  0  0  0  0
    1.2600   -1.2500   -0.1908 C   0  0  0  0  0  0  0  0  0  0  0  0
    2.4067   -0.4399    0.0337 C   0  0  0  0  0  0  0  0  0  0  0  0
    3.7103   -0.9392    0.1935 C   0  0  0  0  0  0  0  0  0  0  0  0
    4.7560   -0.0798    0.4070 C   0  0  0  0  0  0  0  0  0  0  0  0
    4.5424    1.3032    0.4690 C   0  0  0  0  0  0  0  0  0  0  0  0
    3.2821    1.8175    0.3167 C   0  0  0  0  0  0  0  0  0  0  0  0
    2.1906    0.9600    0.0965 C   0  0  0  0  0  0  0  0  0  0  0  0
    0.8602    1.4575   -0.0669 C   0  0  0  0  0  0  0  0  0  0  0  0
    0.6430    2.7679   -0.0091 O   0  0  0  0  0  0  0  0  0  0  0  0
   -0.3330    2.9127   -0.1388 H   0  0  0  0  0  0  0  0  0  0  0  0
    3.0950    2.8788    0.3609 H   0  0  0  0  0  0  0  0  0  0  0  0
    5.3802    1.9628    0.6380 H   0  0  0  0  0  0  0  0  0  0  0  0
    5.7560   -0.4683    0.5291 H   0  0  0  0  0  0  0  0  0  0  0  0
    3.8699   -2.0052    0.1449 H   0  0  0  0  0  0  0  0  0  0  0  0
    1.4266   -2.9628   -0.2800 Cl  0  0  0  0  0  0  0  0  0  0  0  0
   -2.0735   -0.9311   -0.6288 H   0  0  0  0  0  0  0  0  0  0  0  0
   -4.0006    1.3285   -0.7795 H   0  0  0  0  0  0  0  0  0  0  0  0
   -4.2607   -0.1661   -1.7023 H   0  0  0  0  0  0  0  0  0  0  0  0
  1  2  2  0
  2  3  1  0
  2  5  1  0
  3  4  1  0
  5  6  1  0
  5 27  1  0
  5 28  1  0
  6  7  1  0
  6 26  1  0
  7  8  2  0
  7  9  1  0
  9 10  2  0
  9 18  1  0
 10 11  1  0
 11 12  2  0
 11 25  1  0
 12 13  1  0
 12 17  1  0
 13 14  2  0
 13 24  1  0
 14 15  1  0
 14 23  1  0
 15 16  2  0
 15 22  1  0
 16 17  1  0
 16 21  1  0
 17 18  2  0
 18 19  1  0
 19 20  1  0
M  END
$$$$

     RDKit          3D

 28 29  0  0  0  0  0  0  0  0999 V2000
   -5.9617   -0.2578    0.0539 O   0  0  0  0  0  0  0  0  0  0  0  0
   -4.7683   -0.3690    0.0181 C   0  0  0  0  0  0  0  0  0  0  0  0
   -4.1478   -1.5530    0.0261 O   0  0  0  0  0  0  0  0  0  0  0  0
   -4.7952   -2.2747    0.0649 H   0  0  0  0  0  0  0  0  0  0  0  0
   -3.8135    0.8007   -0.0475 C   0  0  0  0  0  0  0  0  0  0  0  0
   -2.4310    0.4071   -0.0421 N   0  0  0  0  0  0  0  0  0  0  0  0
   -1.4278    1.2933   -0.0191 C   0  0  0  0  0  0  0  0  0  0  0  0
   -1.6011    2.5144   -0.0071 O   0  0  0  0  0  0  0  0  0  0  0  0
   -0.0790    0.6906   -0.0109 C   0  0  0  0  0  0  0  0  0  0  0  0
   -0.0095   -0.6577   -0.0160 N   0  0  0  0  0  0  0  0  0  0  0  0
    1.1476   -1.2355   -0.0087 C   0  0  0  0  0  0  0  0  0  0  0  0
    2.3917   -0.5473    0.0023 C   0  0  0  0  0  0  0  0  0  0  0  0
    3.6466   -1.1793    0.0083 C   0  0  0  0  0  0  0  0  0  0  0  0
    4.7947   -0.4315    0.0175 C   0  0  0  0  0  0  0  0  0  0  0  0
    4.7354    0.9681    0.0211 C   0  0  0  0  0  0  0  0  0  0  0  0
    3.5257    1.6105    0.0161 C   0  0  0  0  0  0  0  0  0  0  0  0
    2.3317    0.8694    0.0067 C   0  0  0  0  0  0  0  0  0  0  0  0
    1.0498    1.5023    0.0014 C   0  0  0  0  0  0  0  0  0  0  0  0
    0.9773    2.8300    0.0079 O   0  0  0  0  0  0  0  0  0  0  0  0
    0.0115    3.0736    0.0051 H   0  0  0  0  0  0  0  0  0  0  0  0
    3.4568    2.6870    0.0190 H   0  0  0  0  0  0  0  0  0  0  0  0
    5.6521    1.5384    0.0280 H   0  0  0  0  0  0  0  0  0  0  0  0
    5.7567   -0.9218    0.0219 H   0  0  0  0  0  0  0  0  0  0  0  0
    3.6872   -2.2575    0.0054 H   0  0  0  0  0  0  0  0  0  0  0  0
    1.1227   -2.9584   -0.0137 Cl  0  0  0  0  0  0  0  0  0  0  0  0
   -2.1869   -0.5742   -0.0476 H   0  0  0  0  0  0  0  0  0  0  0  0
   -4.0232    1.4663    0.8002 H   0  0  0  0  0  0  0  0  0  0  0  0
   -4.0471    1.3775   -0.9531 H   0  0  0  0  0  0  0  0  0  0  0  0
  1  2  2  0
  2  3  1  0
  2  5  1  0
  3  4  1  0
  5  6  1  0
  5 27  1  0
  5 28  1  0
  6  7  1  0
  6 26  1  0
  7  8  2  0
  7  9  1  0
  9 10  2  0
  9 18  1  0
 10 11  1  0
 11 12  2  0
 11 25  1  0
 12 13  1  0
 12 17  1  0
 13 14  2  0
 13 24  1  0
 14 15  1  0
 14 23  1  0
 15 16  2  0
 15 22  1  0
 16 17  1  0
 16 21  1  0
 17 18  2  0
 18 19  1  0
 19 20  1  0
M  END
$$$$

     RDKit          3D

 28 29  0  0  0  0  0  0  0  0999 V2000
    5.3625    0.6190   -0.2968 O   0  0  0  0  0  0  0  0  0  0  0  0
    4.4900   -0.0285    0.2052 C   0  0  0  0  0  0  0  0  0  0  0  0
    4.1100    0.0963    1.4791 O   0  0  0  0  0  0  0  0  0  0  0  0
    4.5508    0.8590    1.8844 H   0  0  0  0  0  0  0  0  0  0  0  0
    3.7654   -1.1844   -0.4829 C   0  0  0  0  0  0  0  0  0  0  0  0
    2.3385   -1.0636   -0.3232 N   0  0  0  0  0  0  0  0  0  0  0  0
    1.7299    0.1281   -0.3077 C   0  0  0  0  0  0  0  0  0  0  0  0
    2.3447    1.1959   -0.3765 O   0  0  0  0  0  0  0  0  0  0  0  0
    0.2606    0.0722   -0.1889 C   0  0  0  0  0  0  0  0  0  0  0  0
   -0.3028   -1.1538   -0.1299 N   0  0  0  0  0  0  0  0  0  0  0  0
   -1.5879   -1.2586   -0.0246 C   0  0  0  0  0  0  0  0  0  0  0  0
   -2.4836   -0.1558    0.0348 C   0  0  0  0  0  0  0  0  0  0  0  0
   -3.8790   -0.2747    0.1484 C   0  0  0  0  0  0  0  0  0  0  0  0
   -4.6645    0.8470    0.1975 C   0  0  0  0  0  0  0  0  0  0  0  0
   -4.0912    2.1236    0.1353 C   0  0  0  0  0  0  0  0  0  0  0  0
   -2.7337    2.2691    0.0245 C   0  0  0  0  0  0  0  0  0  0  0  0
   -1.9035    1.1365   -0.0279 C   0  0  0  0  0  0  0  0  0  0  0  0
   -0.4827    1.2463   -0.1442 C   0  0  0  0  0  0  0  0  0  0  0  0
    0.0753    2.4511   -0.2050 O   0  0  0  0  0  0  0  0  0  0  0  0
    1.0582    2.3211   -0.2896 H   0  0  0  0  0  0  0  0  0  0  0  0
   -2.2711    3.2422   -0.0250 H   0  0  0  0  0  0  0  0  0  0  0  0
   -4.7281    2.9944    0.1754 H   0  0  0  0  0  0  0  0  0  0  0  0
   -5.7364    0.7504    0.2846 H   0  0  0  0  0  0  0  0  0  0  0  0
   -4.3163   -1.2600    0.1956 H   0  0  0  0  0  0  0  0  0  0  0  0
   -2.2041   -2.8660    0.0425 Cl  0  0  0  0  0  0  0  0  0  0  0  0
    1.7456   -1.8794   -0.2662 H   0  0  0  0  0  0  0  0  0  0  0  0
    4.1006   -2.1158   -0.0212 H   0  0  0  0  0  0  0  0  0  0  0  0
    4.0530   -1.1756   -1.5410 H   0  0  0  0  0  0  0  0  0  0  0  0
  1  2  2  0
  2  3  1  0
  2  5  1  0
  3  4  1  0
  5  6  1  0
  5 27  1  0
  5 28  1  0
  6  7  1  0
  6 26  1  0
  7  8  2  0
  7  9  1  0
  9 10  2  0
  9 18  1  0
 10 11  1  0
 11 12  2  0
 11 25  1  0
 12 13  1  0
 12 17  1  0
 13 14  2  0
 13 24  1  0
 14 15  1  0
 14 23  1  0
 15 16  2  0
 15 22  1  0
 16 17  1  0
 16 21  1  0
 17 18  2  0
 18 19  1  0
 19 20  1  0
M  END
$$$$
