
     RDKit          3D

 18 18  0  0  0  0  0  0  0  0999 V2000
    2.9477    0.9570   -0.0339 N   0  0  0  0  0  0  0  0  0  0  0  0
    1.7153   -0.1288   -0.0298 S   0  0  1  0  0  0  0  0  0  0  0  0
    1.6068   -0.6991   -1.3252 O   0  0  0  0  0  0  0  0  0  0  0  0
    1.8640   -0.9649    1.1081 O   0  0  0  0  0  0  0  0  0  0  0  0
    0.4894    0.9014    0.2040 O   0  0  0  0  0  0  0  0  0  0  0  0
   -0.8041    0.4260    0.1109 C   0  0  0  0  0  0  0  0  0  0  0  0
   -1.0914   -0.9293    0.0951 C   0  0  0  0  0  0  0  0  0  0  0  0
   -2.4113   -1.3410    0.0036 C   0  0  0  0  0  0  0  0  0  0  0  0
   -3.4356   -0.4125   -0.0676 C   0  0  0  0  0  0  0  0  0  0  0  0
   -3.1394    0.9401   -0.0466 C   0  0  0  0  0  0  0  0  0  0  0  0
   -1.8261    1.3654    0.0400 C   0  0  0  0  0  0  0  0  0  0  0  0
   -1.5782    2.4149    0.0561 H   0  0  0  0  0  0  0  0  0  0  0  0
   -3.9323    1.6708   -0.1006 H   0  0  0  0  0  0  0  0  0  0  0  0
   -4.4613   -0.7408   -0.1385 H   0  0  0  0  0  0  0  0  0  0  0  0
   -2.6358   -2.3966   -0.0107 H   0  0  0  0  0  0  0  0  0  0  0  0
   -0.2861   -1.6422    0.1557 H   0  0  0  0  0  0  0  0  0  0  0  0
    3.0566    1.4133    0.8549 H   0  0  0  0  0  0  0  0  0  0  0  0
    2.8863    1.6044   -0.8004 H   0  0  0  0  0  0  0  0  0  0  0  0
  1  2  1  0
  1 17  1  0
  1 18  1  0
  2  3  2  0
  2  4  2  0
  2  5  1  1
  5  6  1  0
  6  7  2  0
  6 11  1  0
  7  8  1  0
  7 16  1  0
  8  9  2  0
  8 15  1  0
  9 10  1  0
  9 14  1  0
 10 11  2  0
 10 13  1  0
 11 12  1  0
M  END
$$$$

     RDKit          3D

 18 18  0  0  0  0  0  0  0  0999 V2000
   -1.9181   -1.1561   -1.0212 N   0  0  0  0  0  0  0  0  0  0  0  0
   -1.7333    0.0379    0.1348 S   0  0  1  0  0  0  0  0  0  0  0  0
   -2.8447    0.9228    0.0800 O   0  0  0  0  0  0  0  0  0  0  0  0
   -1.3892   -0.5996    1.3579 O   0  0  0  0  0  0  0  0  0  0  0  0
   -0.5095    0.8513   -0.4529 O   0  0  0  0  0  0  0  0  0  0  0  0
    0.7786    0.3965   -0.2418 C   0  0  0  0  0  0  0  0  0  0  0  0
    1.7827    1.3486   -0.1159 C   0  0  0  0  0  0  0  0  0  0  0  0
    3.0911    0.9412    0.0739 C   0  0  0  0  0  0  0  0  0  0  0  0
    3.3980   -0.4073    0.1478 C   0  0  0  0  0  0  0  0  0  0  0  0
    2.3911   -1.3490    0.0231 C   0  0  0  0  0  0  0  0  0  0  0  0
    1.0779   -0.9545   -0.1763 C   0  0  0  0  0  0  0  0  0  0  0  0
    0.2866   -1.6772   -0.2766 H   0  0  0  0  0  0  0  0  0  0  0  0
    2.6254   -2.4012    0.0796 H   0  0  0  0  0  0  0  0  0  0  0  0
    4.4187   -0.7223    0.3025 H   0  0  0  0  0  0  0  0  0  0  0  0
    3.8707    1.6816    0.1705 H   0  0  0  0  0  0  0  0  0  0  0  0
    1.5230    2.3937   -0.1708 H   0  0  0  0  0  0  0  0  0  0  0  0
   -2.3577   -1.9616   -0.6061 H   0  0  0  0  0  0  0  0  0  0  0  0
   -2.4719   -0.8061   -1.7864 H   0  0  0  0  0  0  0  0  0  0  0  0
  1  2  1  0
  1 17  1  0
  1 18  1  0
  2  3  2  0
  2  4  2  0
  2  5  1  6
  5  6  1  0
  6  7  2  0
  6 11  1  0
  7  8  1  0
  7 16  1  0
  8  9  2  0
  8 15  1  0
  9 10  1  0
  9 14  1  0
 10 11  2  0
 10 13  1  0
 11 12  1  0
M  END
$$$$

     RDKit          3D

 18 18  0  0  0  0  0  0  0  0999 V2000
    1.6606    0.7981   -1.3695 N   0  0  0  0  0  0  0  0  0  0  0  0
    1.7693   -0.0044    0.0901 S   0  0  1  0  0  0  0  0  0  0  0  0
    2.8769   -0.8945    0.0720 O   0  0  0  0  0  0  0  0  0  0  0  0
    1.6634    0.9673    1.1230 O   0  0  0  0  0  0  0  0  0  0  0  0
    0.4933   -0.9344    0.0134 O   0  0  0  0  0  0  0  0  0  0  0  0
   -0.7908   -0.4274    0.0172 C   0  0  0  0  0  0  0  0  0  0  0  0
   -1.8246   -1.3572   -0.0187 C   0  0  0  0  0  0  0  0  0  0  0  0
   -3.1376   -0.9238   -0.0321 C   0  0  0  0  0  0  0  0  0  0  0  0
   -3.4248    0.4311   -0.0084 C   0  0  0  0  0  0  0  0  0  0  0  0
   -2.3906    1.3496    0.0308 C   0  0  0  0  0  0  0  0  0  0  0  0
   -1.0695    0.9292    0.0411 C   0  0  0  0  0  0  0  0  0  0  0  0
   -0.2634    1.6399    0.0868 H   0  0  0  0  0  0  0  0  0  0  0  0
   -2.6078    2.4067    0.0541 H   0  0  0  0  0  0  0  0  0  0  0  0
   -4.4502    0.7678   -0.0178 H   0  0  0  0  0  0  0  0  0  0  0  0
   -3.9373   -1.6484   -0.0600 H   0  0  0  0  0  0  0  0  0  0  0  0
   -1.5804   -2.4073   -0.0351 H   0  0  0  0  0  0  0  0  0  0  0  0
    2.0888    0.2486   -2.0964 H   0  0  0  0  0  0  0  0  0  0  0  0
    2.0954    1.7033   -1.3022 H   0  0  0  0  0  0  0  0  0  0  0  0
  1  2  1  0
  1 17  1  0
  1 18  1  0
  2  3  2  0
  2  4  2  0
  2  5  1  1
  5  6  1  0
  6  7  2  0
  6 11  1  0
  7  8  1  0
  7 16  1  0
  8  9  2  0
  8 15  1  0
  9 10  1  0
  9 14  1  0
 10 11  2  0
 10 13  1  0
 11 12  1  0
M  END
$$$$

     RDKit          3D

 18 18  0  0  0  0  0  0  0  0999 V2000
   -1.7579   -1.5695    0.2359 N   0  0  0  0  0  0  0  0  0  0  0  0
   -1.6854    0.0954    0.1177 S   0  0  1  0  0  0  0  0  0  0  0  0
   -2.9045    0.5785   -0.4296 O   0  0  0  0  0  0  0  0  0  0  0  0
   -1.2052    0.5883    1.3636 O   0  0  0  0  0  0  0  0  0  0  0  0
   -0.5800    0.2816   -1.0018 O   0  0  0  0  0  0  0  0  0  0  0  0
    0.7220    0.1347   -0.5453 C   0  0  0  0  0  0  0  0  0  0  0  0
    1.2607   -1.1324   -0.3829 C   0  0  0  0  0  0  0  0  0  0  0  0
    2.5674   -1.2638    0.0566 C   0  0  0  0  0  0  0  0  0  0  0  0
    3.3258   -0.1404    0.3401 C   0  0  0  0  0  0  0  0  0  0  0  0
    2.7761    1.1211    0.1849 C   0  0  0  0  0  0  0  0  0  0  0  0
    1.4709    1.2643   -0.2539 C   0  0  0  0  0  0  0  0  0  0  0  0
    1.0228    2.2378   -0.3724 H   0  0  0  0  0  0  0  0  0  0  0  0
    3.3619    1.9988    0.4119 H   0  0  0  0  0  0  0  0  0  0  0  0
    4.3429   -0.2481    0.6856 H   0  0  0  0  0  0  0  0  0  0  0  0
    2.9915   -2.2489    0.1813 H   0  0  0  0  0  0  0  0  0  0  0  0
    0.6524   -1.9957   -0.6008 H   0  0  0  0  0  0  0  0  0  0  0  0
   -1.8196   -1.8426    1.2022 H   0  0  0  0  0  0  0  0  0  0  0  0
   -2.5369   -1.9221   -0.2954 H   0  0  0  0  0  0  0  0  0  0  0  0
  1  2  1  0
  1 17  1  0
  1 18  1  0
  2  3  2  0
  2  4  2  0
  2  5  1  6
  5  6  1  0
  6  7  2  0
  6 11  1  0
  7  8  1  0
  7 16  1  0
  8  9  2  0
  8 15  1  0
  9 10  1  0
  9 14  1  0
 10 11  2  0
 10 13  1  0
 11 12  1  0
M  END
$$$$

     RDKit          3D

 18 18  0  0  0  0  0  0  0  0999 V2000
   -2.8981   -1.0176   -0.0309 N   0  0  0  0  0  0  0  0  0  0  0  0
   -1.7014    0.1200   -0.0335 S   0  0  1  0  0  0  0  0  0  0  0  0
   -1.5654    0.6643   -1.3427 O   0  0  0  0  0  0  0  0  0  0  0  0
   -1.8963    0.9939    1.0738 O   0  0  0  0  0  0  0  0  0  0  0  0
   -0.4951   -0.8841    0.2576 O   0  0  0  0  0  0  0  0  0  0  0  0
    0.7992   -0.4182    0.1384 C   0  0  0  0  0  0  0  0  0  0  0  0
    1.8141   -1.3643    0.0541 C   0  0  0  0  0  0  0  0  0  0  0  0
    3.1286   -0.9479   -0.0548 C   0  0  0  0  0  0  0  0  0  0  0  0
    3.4336    0.4028   -0.0855 C   0  0  0  0  0  0  0  0  0  0  0  0
    2.4171    1.3385   -0.0007 C   0  0  0  0  0  0  0  0  0  0  0  0
    1.0963    0.9353    0.1141 C   0  0  0  0  0  0  0  0  0  0  0  0
    0.2967    1.6538    0.1868 H   0  0  0  0  0  0  0  0  0  0  0  0
    2.6485    2.3925   -0.0220 H   0  0  0  0  0  0  0  0  0  0  0  0
    4.4603    0.7240   -0.1744 H   0  0  0  0  0  0  0  0  0  0  0  0
    3.9160   -1.6837   -0.1191 H   0  0  0  0  0  0  0  0  0  0  0  0
    1.5571   -2.4112    0.0778 H   0  0  0  0  0  0  0  0  0  0  0  0
   -3.5780   -0.8562    0.6910 H   0  0  0  0  0  0  0  0  0  0  0  0
   -3.3105   -1.1418   -0.9387 H   0  0  0  0  0  0  0  0  0  0  0  0
  1  2  1  0
  1 17  1  0
  1 18  1  0
  2  3  2  0
  2  4  2  0
  2  5  1  1
  5  6  1  0
  6  7  2  0
  6 11  1  0
  7  8  1  0
  7 16  1  0
  8  9  2  0
  8 15  1  0
  9 10  1  0
  9 14  1  0
 10 11  2  0
 10 13  1  0
 11 12  1  0
M  END
$$$$

     RDKit          3D

 18 18  0  0  0  0  0  0  0  0999 V2000
   -1.6418   -0.4979    1.5185 N   0  0  0  0  0  0  0  0  0  0  0  0
   -1.7864   -0.0258   -0.0576 S   0  0  1  0  0  0  0  0  0  0  0  0
   -1.7259   -1.1880   -0.8711 O   0  0  0  0  0  0  0  0  0  0  0  0
   -2.8877    0.8575   -0.1444 O   0  0  0  0  0  0  0  0  0  0  0  0
   -0.4942    0.9036   -0.2899 O   0  0  0  0  0  0  0  0  0  0  0  0
    0.7886    0.4147   -0.1718 C   0  0  0  0  0  0  0  0  0  0  0  0
    1.8060    1.3565   -0.0489 C   0  0  0  0  0  0  0  0  0  0  0  0
    3.1169    0.9391    0.0873 C   0  0  0  0  0  0  0  0  0  0  0  0
    3.4212   -0.4124    0.1080 C   0  0  0  0  0  0  0  0  0  0  0  0
    2.4063   -1.3441   -0.0199 C   0  0  0  0  0  0  0  0  0  0  0  0
    1.0869   -0.9403   -0.1581 C   0  0  0  0  0  0  0  0  0  0  0  0
    0.3001   -1.6637   -0.2955 H   0  0  0  0  0  0  0  0  0  0  0  0
    2.6362   -2.3988   -0.0160 H   0  0  0  0  0  0  0  0  0  0  0  0
    4.4449   -0.7361    0.2162 H   0  0  0  0  0  0  0  0  0  0  0  0
    3.9023    1.6738    0.1783 H   0  0  0  0  0  0  0  0  0  0  0  0
    1.5496    2.4036   -0.0697 H   0  0  0  0  0  0  0  0  0  0  0  0
   -1.7321    0.2764    2.1520 H   0  0  0  0  0  0  0  0  0  0  0  0
   -0.8405   -1.0741    1.7098 H   0  0  0  0  0  0  0  0  0  0  0  0
  1  2  1  0
  1 17  1  0
  1 18  1  0
  2  3  2  0
  2  4  2  0
  2  5  1  6
  5  6  1  0
  6  7  2  0
  6 11  1  0
  7  8  1  0
  7 16  1  0
  8  9  2  0
  8 15  1  0
  9 10  1  0
  9 14  1  0
 10 11  2  0
 10 13  1  0
 11 12  1  0
M  END
$$$$

     RDKit          3D

 18 18  0  0  0  0  0  0  0  0999 V2000
    1.8267    1.3399   -0.8807 N   0  0  0  0  0  0  0  0  0  0  0  0
    1.7085   -0.1044   -0.0868 S   0  0  1  0  0  0  0  0  0  0  0  0
    1.2366   -1.0644   -1.0211 O   0  0  0  0  0  0  0  0  0  0  0  0
    2.9129   -0.3040    0.6286 O   0  0  0  0  0  0  0  0  0  0  0  0
    0.5688    0.1794    1.0161 O   0  0  0  0  0  0  0  0  0  0  0  0
   -0.7308    0.0835    0.5546 C   0  0  0  0  0  0  0  0  0  0  0  0
   -1.2996   -1.1602    0.3240 C   0  0  0  0  0  0  0  0  0  0  0  0
   -2.6046   -1.2364   -0.1308 C   0  0  0  0  0  0  0  0  0  0  0  0
   -3.3379   -0.0826   -0.3547 C   0  0  0  0  0  0  0  0  0  0  0  0
   -2.7644    1.1559   -0.1227 C   0  0  0  0  0  0  0  0  0  0  0  0
   -1.4569    1.2445    0.3246 C   0  0  0  0  0  0  0  0  0  0  0  0
   -1.0012    2.2047    0.5164 H   0  0  0  0  0  0  0  0  0  0  0  0
   -3.3318    2.0582   -0.2944 H   0  0  0  0  0  0  0  0  0  0  0  0
   -4.3553   -0.1480   -0.7092 H   0  0  0  0  0  0  0  0  0  0  0  0
   -3.0493   -2.2029   -0.3122 H   0  0  0  0  0  0  0  0  0  0  0  0
   -0.7107   -2.0461    0.4943 H   0  0  0  0  0  0  0  0  0  0  0  0
    1.0009    1.5700   -1.4053 H   0  0  0  0  0  0  0  0  0  0  0  0
    2.1364    2.0834   -0.2798 H   0  0  0  0  0  0  0  0  0  0  0  0
  1  2  1  0
  1 17  1  0
  1 18  1  0
  2  3  2  0
  2  4  2  0
  2  5  1  1
  5  6  1  0
  6  7  2  0
  6 11  1  0
  7  8  1  0
  7 16  1  0
  8  9  2  0
  8 15  1  0
  9 10  1  0
  9 14  1  0
 10 11  2  0
 10 13  1  0
 11 12  1  0
M  END
$$$$
