
     RDKit          3D

 35 37  0  0  0  0  0  0  0  0999 V2000
   -0.1531   -2.3322    0.4637 O   0  0  0  0  0  0  0  0  0  0  0  0
    0.0713   -1.1449    0.3291 C   0  0  0  0  0  0  0  0  0  0  0  0
   -0.9058   -0.2108    0.2743 N   0  0  0  0  0  0  0  0  0  0  0  0
   -0.6678    0.7464    0.0717 H   0  0  0  0  0  0  0  0  0  0  0  0
   -2.3084   -0.5437    0.3652 C   0  0  2  0  0  0  0  0  0  0  0  0
   -2.3369   -1.5848    0.7012 H   0  0  0  0  0  0  0  0  0  0  0  0
   -3.0242   -0.4336   -0.9934 C   0  0  1  0  0  0  0  0  0  0  0  0
   -4.4814   -0.8555   -0.7881 C   0  0  0  0  0  0  0  0  0  0  0  0
   -4.5171   -1.8779   -0.4106 H   0  0  0  0  0  0  0  0  0  0  0  0
   -5.0082   -0.8319   -1.7429 H   0  0  0  0  0  0  0  0  0  0  0  0
   -5.1203    0.1276    0.2179 C   0  0  0  0  0  0  0  0  0  0  0  0
   -4.1456    1.0864    0.7115 N   0  0  0  0  0  0  0  0  0  0  0  0
   -3.0505    0.3872    1.3546 C   0  0  0  0  0  0  0  0  0  0  0  0
   -3.4576   -0.1821    2.1920 H   0  0  0  0  0  0  0  0  0  0  0  0
   -2.3606    1.1322    1.7607 H   0  0  0  0  0  0  0  0  0  0  0  0
   -3.6458    1.8949   -0.3874 C   0  0  0  0  0  0  0  0  0  0  0  0
   -4.4858    2.4671   -0.7870 H   0  0  0  0  0  0  0  0  0  0  0  0
   -2.9265    2.6071    0.0249 H   0  0  0  0  0  0  0  0  0  0  0  0
   -3.0014    1.0176   -1.4829 C   0  0  0  0  0  0  0  0  0  0  0  0
   -3.5639    1.0872   -2.4151 H   0  0  0  0  0  0  0  0  0  0  0  0
   -1.9791    1.3346   -1.6957 H   0  0  0  0  0  0  0  0  0  0  0  0
   -5.5298   -0.4035    1.0795 H   0  0  0  0  0  0  0  0  0  0  0  0
   -5.9325    0.6916   -0.2450 H   0  0  0  0  0  0  0  0  0  0  0  0
   -2.5331   -1.0884   -1.7182 H   0  0  0  0  0  0  0  0  0  0  0  0
    1.4611   -0.6069    0.2051 C   0  0  0  0  0  0  0  0  0  0  0  0
    2.4236   -1.4267   -0.3771 C   0  0  0  0  0  0  0  0  0  0  0  0
    3.7291   -0.9978   -0.5162 C   0  0  0  0  0  0  0  0  0  0  0  0
    4.0798    0.2610   -0.0521 C   0  0  0  0  0  0  0  0  0  0  0  0
    3.1414    1.0822    0.5541 C   0  0  0  0  0  0  0  0  0  0  0  0
    1.8348    0.6469    0.6789 C   0  0  0  0  0  0  0  0  0  0  0  0
    1.1191    1.2833    1.1792 H   0  0  0  0  0  0  0  0  0  0  0  0
    3.4348    2.0508    0.9277 H   0  0  0  0  0  0  0  0  0  0  0  0
    5.7089    0.8106   -0.2177 Cl  0  0  0  0  0  0  0  0  0  0  0  0
    4.4719   -1.6315   -0.9743 H   0  0  0  0  0  0  0  0  0  0  0  0
    2.1273   -2.4075   -0.7162 H   0  0  0  0  0  0  0  0  0  0  0  0
  1  2  2  0
  2  3  1  0
  2 25  1  0
  3  4  1  0
  3  5  1  0
  5  6  1  1
  5  7  1  0
  5 13  1  0
  7  8  1  0
  7 19  1  0
  7 24  1  6
  8  9  1  0
  8 10  1  0
  8 11  1  0
 11 12  1  0
 11 22  1  0
 11 23  1  0
 12 13  1  0
 12 16  1  0
 13 14  1  0
 13 15  1  0
 16 17  1  0
 16 18  1  0
 16 19  1  0
 19 20  1  0
 19 21  1  0
 25 26  2  0
 25 30  1  0
 26 27  1  0
 26 35  1  0
 27 28  2  0
 27 34  1  0
 28 29  1  0
 28 33  1  0
 29 30  2  0
 29 32  1  0
 30 31  1  0
M  END
$$$$

     RDKit          3D

 35 37  0  0  0  0  0  0  0  0999 V2000
   -0.1140   -3.2426    0.2457 O   0  0  0  0  0  0  0  0  0  0  0  0
   -0.0018   -2.0330    0.1991 C   0  0  0  0  0  0  0  0  0  0  0  0
    1.2118   -1.4390    0.2488 N   0  0  0  0  0  0  0  0  0  0  0  0
    1.9861   -2.0840    0.3385 H   0  0  0  0  0  0  0  0  0  0  0  0
    1.5564   -0.0601    0.0056 C   0  0  2  0  0  0  0  0  0  0  0  0
    0.6340    0.4631   -0.2622 H   0  0  0  0  0  0  0  0  0  0  0  0
    2.5520    0.0846   -1.1616 C   0  0  1  0  0  0  0  0  0  0  0  0
    2.7453    1.5821   -1.4189 C   0  0  0  0  0  0  0  0  0  0  0  0
    1.7957    2.0357   -1.7063 H   0  0  0  0  0  0  0  0  0  0  0  0
    3.4458    1.7220   -2.2430 H   0  0  0  0  0  0  0  0  0  0  0  0
    3.2893    2.2170   -0.1190 C   0  0  0  0  0  0  0  0  0  0  0  0
    3.4806    1.2178    0.9183 N   0  0  0  0  0  0  0  0  0  0  0  0
    2.2130    0.5991    1.2485 C   0  0  0  0  0  0  0  0  0  0  0  0
    1.5607    1.3671    1.6699 H   0  0  0  0  0  0  0  0  0  0  0  0
    2.3907   -0.1560    2.0182 H   0  0  0  0  0  0  0  0  0  0  0  0
    4.4255    0.2098    0.4690 C   0  0  0  0  0  0  0  0  0  0  0  0
    5.3748    0.7115    0.2709 H   0  0  0  0  0  0  0  0  0  0  0  0
    4.5840   -0.4890    1.2936 H   0  0  0  0  0  0  0  0  0  0  0  0
    3.9095   -0.5199   -0.7902 C   0  0  0  0  0  0  0  0  0  0  0  0
    4.5979   -0.3865   -1.6258 H   0  0  0  0  0  0  0  0  0  0  0  0
    3.8189   -1.5927   -0.6151 H   0  0  0  0  0  0  0  0  0  0  0  0
    2.5988    2.9691    0.2680 H   0  0  0  0  0  0  0  0  0  0  0  0
    4.2513    2.7032   -0.2925 H   0  0  0  0  0  0  0  0  0  0  0  0
    2.1475   -0.4084   -2.0505 H   0  0  0  0  0  0  0  0  0  0  0  0
   -1.1930   -1.1310    0.1153 C   0  0  0  0  0  0  0  0  0  0  0  0
   -1.4321   -0.1627    1.0852 C   0  0  0  0  0  0  0  0  0  0  0  0
   -2.5725    0.6175    1.0290 C   0  0  0  0  0  0  0  0  0  0  0  0
   -3.4759    0.4280   -0.0055 C   0  0  0  0  0  0  0  0  0  0  0  0
   -3.2596   -0.5430   -0.9708 C   0  0  0  0  0  0  0  0  0  0  0  0
   -2.1221   -1.3259   -0.8999 C   0  0  0  0  0  0  0  0  0  0  0  0
   -1.9470   -2.0973   -1.6341 H   0  0  0  0  0  0  0  0  0  0  0  0
   -3.9778   -0.6874   -1.7626 H   0  0  0  0  0  0  0  0  0  0  0  0
   -4.8961    1.4098   -0.0852 Cl  0  0  0  0  0  0  0  0  0  0  0  0
   -2.7632    1.3661    1.7819 H   0  0  0  0  0  0  0  0  0  0  0  0
   -0.7317   -0.0299    1.8964 H   0  0  0  0  0  0  0  0  0  0  0  0
  1  2  2  0
  2  3  1  0
  2 25  1  0
  3  4  1  0
  3  5  1  0
  5  6  1  6
  5  7  1  0
  5 13  1  0
  7  8  1  0
  7 19  1  0
  7 24  1  6
  8  9  1  0
  8 10  1  0
  8 11  1  0
 11 12  1  0
 11 22  1  0
 11 23  1  0
 12 13  1  0
 12 16  1  0
 13 14  1  0
 13 15  1  0
 16 17  1  0
 16 18  1  0
 16 19  1  0
 19 20  1  0
 19 21  1  0
 25 26  2  0
 25 30  1  0
 26 27  1  0
 26 35  1  0
 27 28  2  0
 27 34  1  0
 28 29  1  0
 28 33  1  0
 29 30  2  0
 29 32  1  0
 30 31  1  0
M  END
$$$$

     RDKit          3D

 35 37  0  0  0  0  0  0  0  0999 V2000
    0.0422    3.2666    0.1572 O   0  0  0  0  0  0  0  0  0  0  0  0
    0.1057    2.0761   -0.0731 C   0  0  0  0  0  0  0  0  0  0  0  0
    1.2743    1.4745   -0.3909 N   0  0  0  0  0  0  0  0  0  0  0  0
    2.0829    2.0821   -0.3585 H   0  0  0  0  0  0  0  0  0  0  0  0
    1.5385    0.0561   -0.4674 C   0  0  2  0  0  0  0  0  0  0  0  0
    0.6209   -0.4336   -0.8060 H   0  0  0  0  0  0  0  0  0  0  0  0
    1.9296   -0.5331    0.9038 C   0  0  1  0  0  0  0  0  0  0  0  0
    2.1800   -2.0315    0.7172 C   0  0  0  0  0  0  0  0  0  0  0  0
    1.2801   -2.5082    0.3251 H   0  0  0  0  0  0  0  0  0  0  0  0
    2.4073   -2.4879    1.6810 H   0  0  0  0  0  0  0  0  0  0  0  0
    3.3643   -2.1927   -0.2620 C   0  0  0  0  0  0  0  0  0  0  0  0
    3.8046   -0.9056   -0.7733 N   0  0  0  0  0  0  0  0  0  0  0  0
    2.7053   -0.2390   -1.4416 C   0  0  0  0  0  0  0  0  0  0  0  0
    2.3722   -0.8776   -2.2620 H   0  0  0  0  0  0  0  0  0  0  0  0
    3.0803    0.6924   -1.8735 H   0  0  0  0  0  0  0  0  0  0  0  0
    4.3006   -0.0820    0.3170 C   0  0  0  0  0  0  0  0  0  0  0  0
    5.1822   -0.5759    0.7308 H   0  0  0  0  0  0  0  0  0  0  0  0
    4.6236    0.8713   -0.1077 H   0  0  0  0  0  0  0  0  0  0  0  0
    3.2200    0.1244    1.4007 C   0  0  0  0  0  0  0  0  0  0  0  0
    3.5186   -0.3418    2.3406 H   0  0  0  0  0  0  0  0  0  0  0  0
    3.0530    1.1837    1.5986 H   0  0  0  0  0  0  0  0  0  0  0  0
    3.0856   -2.8137   -1.1160 H   0  0  0  0  0  0  0  0  0  0  0  0
    4.2186   -2.6624    0.2287 H   0  0  0  0  0  0  0  0  0  0  0  0
    1.1164   -0.3658    1.6163 H   0  0  0  0  0  0  0  0  0  0  0  0
   -1.1030    1.1880   -0.0536 C   0  0  0  0  0  0  0  0  0  0  0  0
   -1.6346    0.6897   -1.2378 C   0  0  0  0  0  0  0  0  0  0  0  0
   -2.7727   -0.0957   -1.2180 C   0  0  0  0  0  0  0  0  0  0  0  0
   -3.3784   -0.3838   -0.0046 C   0  0  0  0  0  0  0  0  0  0  0  0
   -2.8677    0.1164    1.1824 C   0  0  0  0  0  0  0  0  0  0  0  0
   -1.7334    0.9079    1.1516 C   0  0  0  0  0  0  0  0  0  0  0  0
   -1.3348    1.3147    2.0688 H   0  0  0  0  0  0  0  0  0  0  0  0
   -3.3556   -0.1076    2.1179 H   0  0  0  0  0  0  0  0  0  0  0  0
   -4.7935   -1.3764    0.0260 Cl  0  0  0  0  0  0  0  0  0  0  0  0
   -3.1894   -0.4817   -2.1350 H   0  0  0  0  0  0  0  0  0  0  0  0
   -1.1612    0.9256   -2.1797 H   0  0  0  0  0  0  0  0  0  0  0  0
  1  2  2  0
  2  3  1  0
  2 25  1  0
  3  4  1  0
  3  5  1  0
  5  6  1  6
  5  7  1  0
  5 13  1  0
  7  8  1  0
  7 19  1  0
  7 24  1  1
  8  9  1  0
  8 10  1  0
  8 11  1  0
 11 12  1  0
 11 22  1  0
 11 23  1  0
 12 13  1  0
 12 16  1  0
 13 14  1  0
 13 15  1  0
 16 17  1  0
 16 18  1  0
 16 19  1  0
 19 20  1  0
 19 21  1  0
 25 26  2  0
 25 30  1  0
 26 27  1  0
 26 35  1  0
 27 28  2  0
 27 34  1  0
 28 29  1  0
 28 33  1  0
 29 30  2  0
 29 32  1  0
 30 31  1  0
M  END
$$$$

     RDKit          3D

 35 37  0  0  0  0  0  0  0  0999 V2000
   -0.5685   -1.3628   -0.8246 O   0  0  0  0  0  0  0  0  0  0  0  0
   -0.1064   -0.2993   -0.4594 C   0  0  0  0  0  0  0  0  0  0  0  0
   -0.8189    0.8189   -0.1876 N   0  0  0  0  0  0  0  0  0  0  0  0
   -0.3004    1.5805    0.2220 H   0  0  0  0  0  0  0  0  0  0  0  0
   -2.2602    1.0245   -0.1996 C   0  0  2  0  0  0  0  0  0  0  0  0
   -2.3947    2.1033   -0.3522 H   0  0  0  0  0  0  0  0  0  0  0  0
   -2.9186    0.6530    1.1443 C   0  0  1  0  0  0  0  0  0  0  0  0
   -4.3683    1.1436    1.1001 C   0  0  0  0  0  0  0  0  0  0  0  0
   -4.3949    2.2308    1.0060 H   0  0  0  0  0  0  0  0  0  0  0  0
   -4.8687    0.8766    2.0319 H   0  0  0  0  0  0  0  0  0  0  0  0
   -5.0524    0.4666   -0.1094 C   0  0  0  0  0  0  0  0  0  0  0  0
   -4.1545   -0.4571   -0.7787 N   0  0  0  0  0  0  0  0  0  0  0  0
   -3.0077    0.2492   -1.3115 C   0  0  0  0  0  0  0  0  0  0  0  0
   -3.3548    0.9368   -2.0865 H   0  0  0  0  0  0  0  0  0  0  0  0
   -2.3461   -0.4844   -1.7684 H   0  0  0  0  0  0  0  0  0  0  0  0
   -3.7068   -1.4825    0.1485 C   0  0  0  0  0  0  0  0  0  0  0  0
   -4.5880   -2.0232    0.5001 H   0  0  0  0  0  0  0  0  0  0  0  0
   -3.0736   -2.1753   -0.4068 H   0  0  0  0  0  0  0  0  0  0  0  0
   -2.9219   -0.8656    1.3259 C   0  0  0  0  0  0  0  0  0  0  0  0
   -3.3858   -1.1138    2.2821 H   0  0  0  0  0  0  0  0  0  0  0  0
   -1.9000   -1.2426    1.3409 H   0  0  0  0  0  0  0  0  0  0  0  0
   -5.3730    1.2100   -0.8431 H   0  0  0  0  0  0  0  0  0  0  0  0
   -5.9344   -0.0953    0.2052 H   0  0  0  0  0  0  0  0  0  0  0  0
   -2.3764    1.1340    1.9659 H   0  0  0  0  0  0  0  0  0  0  0  0
    1.3714   -0.1260   -0.2692 C   0  0  0  0  0  0  0  0  0  0  0  0
    2.1015   -1.2284    0.1645 C   0  0  0  0  0  0  0  0  0  0  0  0
    3.4679   -1.1447    0.3491 C   0  0  0  0  0  0  0  0  0  0  0  0
    4.1144    0.0516    0.0782 C   0  0  0  0  0  0  0  0  0  0  0  0
    3.4086    1.1527   -0.3824 C   0  0  0  0  0  0  0  0  0  0  0  0
    2.0392    1.0615   -0.5521 C   0  0  0  0  0  0  0  0  0  0  0  0
    1.5022    1.9158   -0.9389 H   0  0  0  0  0  0  0  0  0  0  0  0
    3.9292    2.0699   -0.6090 H   0  0  0  0  0  0  0  0  0  0  0  0
    5.8226    0.1710    0.3037 Cl  0  0  0  0  0  0  0  0  0  0  0  0
    4.0305   -1.9975    0.6947 H   0  0  0  0  0  0  0  0  0  0  0  0
    1.5780   -2.1535    0.3527 H   0  0  0  0  0  0  0  0  0  0  0  0
  1  2  2  0
  2  3  1  0
  2 25  1  0
  3  4  1  0
  3  5  1  0
  5  6  1  6
  5  7  1  0
  5 13  1  0
  7  8  1  0
  7 19  1  0
  7 24  1  1
  8  9  1  0
  8 10  1  0
  8 11  1  0
 11 12  1  0
 11 22  1  0
 11 23  1  0
 12 13  1  0
 12 16  1  0
 13 14  1  0
 13 15  1  0
 16 17  1  0
 16 18  1  0
 16 19  1  0
 19 20  1  0
 19 21  1  0
 25 26  2  0
 25 30  1  0
 26 27  1  0
 26 35  1  0
 27 28  2  0
 27 34  1  0
 28 29  1  0
 28 33  1  0
 29 30  2  0
 29 32  1  0
 30 31  1  0
M  END
$$$$
