
     RDKit          3D

 45 48  0  0  0  0  0  0  0  0999 V2000
   -2.2034   -1.0258    1.7326 C   0  0  0  0  0  0  0  0  0  0  0  0
   -2.7831   -0.2781    2.2685 H   0  0  0  0  0  0  0  0  0  0  0  0
   -2.6010   -2.0134    1.9645 H   0  0  0  0  0  0  0  0  0  0  0  0
   -1.1856   -0.9908    2.1059 H   0  0  0  0  0  0  0  0  0  0  0  0
   -2.2523   -0.7966    0.2180 C   0  0  2  0  0  0  0  0  0  0  0  0
   -1.5018   -1.9116   -0.5062 C   0  0  0  0  0  0  0  0  0  0  0  0
   -1.8696   -2.8894   -0.1891 H   0  0  0  0  0  0  0  0  0  0  0  0
    0.0056   -1.8204   -0.2456 C   0  0  0  0  0  0  0  0  0  0  0  0
    0.4884   -2.5851   -0.8542 H   0  0  0  0  0  0  0  0  0  0  0  0
    0.2249   -2.0475    0.7987 H   0  0  0  0  0  0  0  0  0  0  0  0
    0.5790   -0.4388   -0.5964 C   0  0  2  0  0  0  0  0  0  0  0  0
    2.0664   -0.3220   -0.3297 C   0  0  0  0  0  0  0  0  0  0  0  0
    2.9186   -1.4050   -0.5297 C   0  0  0  0  0  0  0  0  0  0  0  0
    4.2785   -1.3192   -0.3178 C   0  0  0  0  0  0  0  0  0  0  0  0
    4.8330   -0.1165    0.1018 C   0  0  0  0  0  0  0  0  0  0  0  0
    4.0014    0.9754    0.2863 C   0  0  0  0  0  0  0  0  0  0  0  0
    2.6310    0.8890    0.0709 C   0  0  0  0  0  0  0  0  0  0  0  0
    1.8107    2.1292    0.3056 C   0  0  0  0  0  0  0  0  0  0  0  0
    0.4071    2.0225   -0.2749 C   0  0  0  0  0  0  0  0  0  0  0  0
   -0.1899    0.6789    0.1287 C   0  0  1  0  0  0  0  0  0  0  0  0
   -1.6620    0.5490   -0.2341 C   0  0  2  0  0  0  0  0  0  0  0  0
   -2.6588    1.5799    0.2962 C   0  0  0  0  0  0  0  0  0  0  0  0
   -2.6630    2.4958   -0.2909 H   0  0  0  0  0  0  0  0  0  0  0  0
   -2.4557    1.8319    1.3363 H   0  0  0  0  0  0  0  0  0  0  0  0
   -4.0250    0.8857    0.1437 C   0  0  1  0  0  0  0  0  0  0  0  0
   -4.7627    1.5401   -0.8612 O   0  0  0  0  0  0  0  0  0  0  0  0
   -5.5543    1.0223   -1.0461 H   0  0  0  0  0  0  0  0  0  0  0  0
   -4.5966    0.9159    1.0868 H   0  0  0  0  0  0  0  0  0  0  0  0
   -3.7217   -0.5986   -0.2165 C   0  0  2  0  0  0  0  0  0  0  0  0
   -4.6607   -1.5027    0.2997 O   0  0  0  0  0  0  0  0  0  0  0  0
   -4.5991   -1.4956    1.2618 H   0  0  0  0  0  0  0  0  0  0  0  0
   -3.7976   -0.7095   -1.3040 H   0  0  0  0  0  0  0  0  0  0  0  0
   -1.7321    0.5740   -1.3283 H   0  0  0  0  0  0  0  0  0  0  0  0
   -0.0611    0.5658    1.2090 H   0  0  0  0  0  0  0  0  0  0  0  0
   -0.2083    2.8428    0.0967 H   0  0  0  0  0  0  0  0  0  0  0  0
    0.4443    2.0951   -1.3637 H   0  0  0  0  0  0  0  0  0  0  0  0
    2.3307    2.9925   -0.1169 H   0  0  0  0  0  0  0  0  0  0  0  0
    1.7411    2.2941    1.3866 H   0  0  0  0  0  0  0  0  0  0  0  0
    4.4250    1.9215    0.6021 H   0  0  0  0  0  0  0  0  0  0  0  0
    6.1782   -0.0511    0.3091 O   0  0  0  0  0  0  0  0  0  0  0  0
    6.4196    0.8402    0.5878 H   0  0  0  0  0  0  0  0  0  0  0  0
    4.9238   -2.1684   -0.4746 H   0  0  0  0  0  0  0  0  0  0  0  0
    2.5199   -2.3484   -0.8664 H   0  0  0  0  0  0  0  0  0  0  0  0
    0.4293   -0.2894   -1.6758 H   0  0  0  0  0  0  0  0  0  0  0  0
   -1.6823   -1.8230   -1.5802 H   0  0  0  0  0  0  0  0  0  0  0  0
  1  2  1  0
  1  3  1  0
  1  4  1  0
  5  1  1  1
  5  6  1  0
  5 21  1  0
  5 29  1  0
  6  7  1  0
  6  8  1  0
  6 45  1  0
  8  9  1  0
  8 10  1  0
  8 11  1  0
 11 12  1  0
 11 20  1  0
 11 44  1  6
 12 13  2  0
 12 17  1  0
 13 14  1  0
 13 43  1  0
 14 15  2  0
 14 42  1  0
 15 16  1  0
 15 40  1  0
 16 17  2  0
 16 39  1  0
 17 18  1  0
 18 19  1  0
 18 37  1  0
 18 38  1  0
 19 20  1  0
 19 35  1  0
 19 36  1  0
 20 21  1  0
 20 34  1  1
 21 22  1  0
 21 33  1  6
 22 23  1  0
 22 24  1  0
 22 25  1  0
 25 26  1  0
 25 28  1  1
 25 29  1  0
 26 27  1  0
 29 30  1  0
 29 32  1  6
 30 31  1  0
 40 41  1  0
M  END
$$$$

     RDKit          3D

 45 48  0  0  0  0  0  0  0  0999 V2000
   -2.2131   -0.9737    1.7365 C   0  0  0  0  0  0  0  0  0  0  0  0
   -1.2025   -1.1232    2.1007 H   0  0  0  0  0  0  0  0  0  0  0  0
   -2.6453   -0.1214    2.2506 H   0  0  0  0  0  0  0  0  0  0  0  0
   -2.8041   -1.8514    1.9842 H   0  0  0  0  0  0  0  0  0  0  0  0
   -2.2464   -0.7854    0.2187 C   0  0  2  0  0  0  0  0  0  0  0  0
   -1.4946   -1.9207   -0.4716 C   0  0  0  0  0  0  0  0  0  0  0  0
   -1.8605   -2.8840   -0.1137 H   0  0  0  0  0  0  0  0  0  0  0  0
    0.0145   -1.8183   -0.2239 C   0  0  0  0  0  0  0  0  0  0  0  0
    0.4965   -2.5911   -0.8228 H   0  0  0  0  0  0  0  0  0  0  0  0
    0.2420   -2.0282    0.8219 H   0  0  0  0  0  0  0  0  0  0  0  0
    0.5844   -0.4404   -0.5957 C   0  0  2  0  0  0  0  0  0  0  0  0
    2.0717   -0.3192   -0.3305 C   0  0  0  0  0  0  0  0  0  0  0  0
    2.9263   -1.3960   -0.5522 C   0  0  0  0  0  0  0  0  0  0  0  0
    4.2862   -1.3103   -0.3409 C   0  0  0  0  0  0  0  0  0  0  0  0
    4.8380   -0.1140    0.1007 C   0  0  0  0  0  0  0  0  0  0  0  0
    4.0041    0.9729    0.3036 C   0  0  0  0  0  0  0  0  0  0  0  0
    2.6339    0.8867    0.0876 C   0  0  0  0  0  0  0  0  0  0  0  0
    1.8097    2.1216    0.3357 C   0  0  0  0  0  0  0  0  0  0  0  0
    0.4180    2.0237   -0.2738 C   0  0  0  0  0  0  0  0  0  0  0  0
   -0.1909    0.6814    0.1157 C   0  0  1  0  0  0  0  0  0  0  0  0
   -1.6566    0.5477   -0.2708 C   0  0  2  0  0  0  0  0  0  0  0  0
   -2.6621    1.5929    0.2160 C   0  0  0  0  0  0  0  0  0  0  0  0
   -2.6665    2.4887   -0.4057 H   0  0  0  0  0  0  0  0  0  0  0  0
   -2.4483    1.8974    1.2394 H   0  0  0  0  0  0  0  0  0  0  0  0
   -4.0295    0.8748    0.1246 C   0  0  1  0  0  0  0  0  0  0  0  0
   -4.9168    1.4615   -0.7976 O   0  0  0  0  0  0  0  0  0  0  0  0
   -4.4859    1.5041   -1.6592 H   0  0  0  0  0  0  0  0  0  0  0  0
   -4.5663    0.9145    1.0768 H   0  0  0  0  0  0  0  0  0  0  0  0
   -3.7120   -0.6085   -0.2181 C   0  0  2  0  0  0  0  0  0  0  0  0
   -4.5760   -1.5243    0.4006 O   0  0  0  0  0  0  0  0  0  0  0  0
   -5.4815   -1.2663    0.1964 H   0  0  0  0  0  0  0  0  0  0  0  0
   -3.7779   -0.7265   -1.3156 H   0  0  0  0  0  0  0  0  0  0  0  0
   -1.7023    0.5358   -1.3686 H   0  0  0  0  0  0  0  0  0  0  0  0
   -0.0872    0.5639    1.1976 H   0  0  0  0  0  0  0  0  0  0  0  0
   -0.2006    2.8465    0.0880 H   0  0  0  0  0  0  0  0  0  0  0  0
    0.4795    2.0992   -1.3618 H   0  0  0  0  0  0  0  0  0  0  0  0
    2.3364    2.9941   -0.0588 H   0  0  0  0  0  0  0  0  0  0  0  0
    1.7181    2.2632    1.4181 H   0  0  0  0  0  0  0  0  0  0  0  0
    4.4260    1.9147    0.6344 H   0  0  0  0  0  0  0  0  0  0  0  0
    6.1830   -0.0494    0.3084 O   0  0  0  0  0  0  0  0  0  0  0  0
    6.4221    0.8359    0.6076 H   0  0  0  0  0  0  0  0  0  0  0  0
    4.9338   -2.1545   -0.5143 H   0  0  0  0  0  0  0  0  0  0  0  0
    2.5288   -2.3337   -0.9060 H   0  0  0  0  0  0  0  0  0  0  0  0
    0.4363   -0.3059   -1.6777 H   0  0  0  0  0  0  0  0  0  0  0  0
   -1.6815   -1.8724   -1.5479 H   0  0  0  0  0  0  0  0  0  0  0  0
  1  2  1  0
  1  3  1  0
  1  4  1  0
  5  1  1  1
  5  6  1  0
  5 21  1  0
  5 29  1  0
  6  7  1  0
  6  8  1  0
  6 45  1  0
  8  9  1  0
  8 10  1  0
  8 11  1  0
 11 12  1  0
 11 20  1  0
 11 44  1  6
 12 13  2  0
 12 17  1  0
 13 14  1  0
 13 43  1  0
 14 15  2  0
 14 42  1  0
 15 16  1  0
 15 40  1  0
 16 17  2  0
 16 39  1  0
 17 18  1  0
 18 19  1  0
 18 37  1  0
 18 38  1  0
 19 20  1  0
 19 35  1  0
 19 36  1  0
 20 21  1  0
 20 34  1  1
 21 22  1  0
 21 33  1  6
 22 23  1  0
 22 24  1  0
 22 25  1  0
 25 26  1  0
 25 28  1  1
 25 29  1  0
 26 27  1  0
 29 30  1  0
 29 32  1  6
 30 31  1  0
 40 41  1  0
M  END
$$$$

     RDKit          3D

 45 48  0  0  0  0  0  0  0  0999 V2000
   -2.1471   -1.4013    1.4819 C   0  0  0  0  0  0  0  0  0  0  0  0
   -2.7323   -0.8164    2.1876 H   0  0  0  0  0  0  0  0  0  0  0  0
   -2.5171   -2.4260    1.4821 H   0  0  0  0  0  0  0  0  0  0  0  0
   -1.1233   -1.4227    1.8395 H   0  0  0  0  0  0  0  0  0  0  0  0
   -2.2349   -0.8222    0.0651 C   0  0  2  0  0  0  0  0  0  0  0  0
   -1.5526   -1.7553   -0.9330 C   0  0  0  0  0  0  0  0  0  0  0  0
   -1.9610   -2.7648   -0.8554 H   0  0  0  0  0  0  0  0  0  0  0  0
   -0.0430   -1.7853   -0.6817 C   0  0  0  0  0  0  0  0  0  0  0  0
    0.4276   -2.4082   -1.4455 H   0  0  0  0  0  0  0  0  0  0  0  0
    0.1535   -2.2437    0.2878 H   0  0  0  0  0  0  0  0  0  0  0  0
    0.5850   -0.3899   -0.7279 C   0  0  2  0  0  0  0  0  0  0  0  0
    2.0538   -0.3699   -0.3939 C   0  0  0  0  0  0  0  0  0  0  0  0
    2.8262   -1.4843   -0.1041 C   0  0  0  0  0  0  0  0  0  0  0  0
    4.1620   -1.3553    0.2285 C   0  0  0  0  0  0  0  0  0  0  0  0
    4.7479   -0.0972    0.2837 C   0  0  0  0  0  0  0  0  0  0  0  0
    3.9828    1.0257   -0.0037 C   0  0  0  0  0  0  0  0  0  0  0  0
    2.6479    0.8921   -0.3430 C   0  0  0  0  0  0  0  0  0  0  0  0
    1.7846    2.0651   -0.6825 C   0  0  0  0  0  0  0  0  0  0  0  0
    0.4605    2.0211    0.0946 C   0  0  0  0  0  0  0  0  0  0  0  0
   -0.1196    0.6000    0.2308 C   0  0  1  0  0  0  0  0  0  0  0  0
   -1.6110    0.5755   -0.0791 C   0  0  2  0  0  0  0  0  0  0  0  0
   -2.5501    1.4703    0.7305 C   0  0  0  0  0  0  0  0  0  0  0  0
   -2.5332    2.5071    0.4017 H   0  0  0  0  0  0  0  0  0  0  0  0
   -2.3067    1.4400    1.7915 H   0  0  0  0  0  0  0  0  0  0  0  0
   -3.9460    0.8818    0.4557 C   0  0  1  0  0  0  0  0  0  0  0  0
   -4.6708    1.7810   -0.3501 O   0  0  0  0  0  0  0  0  0  0  0  0
   -5.4911    1.3549   -0.6227 H   0  0  0  0  0  0  0  0  0  0  0  0
   -4.5010    0.7110    1.3934 H   0  0  0  0  0  0  0  0  0  0  0  0
   -3.7094   -0.4860   -0.2514 C   0  0  2  0  0  0  0  0  0  0  0  0
   -4.6616   -1.4606    0.0782 O   0  0  0  0  0  0  0  0  0  0  0  0
   -4.5543   -1.6952    1.0071 H   0  0  0  0  0  0  0  0  0  0  0  0
   -3.8258   -0.3374   -1.3308 H   0  0  0  0  0  0  0  0  0  0  0  0
   -1.7256    0.8616   -1.1320 H   0  0  0  0  0  0  0  0  0  0  0  0
    0.0532    0.2533    1.2534 H   0  0  0  0  0  0  0  0  0  0  0  0
    0.6219    2.4369    1.0900 H   0  0  0  0  0  0  0  0  0  0  0  0
   -0.2571    2.6656   -0.4146 H   0  0  0  0  0  0  0  0  0  0  0  0
    1.5682    2.0337   -1.7549 H   0  0  0  0  0  0  0  0  0  0  0  0
    2.3027    3.0034   -0.4794 H   0  0  0  0  0  0  0  0  0  0  0  0
    4.4340    2.0097    0.0349 H   0  0  0  0  0  0  0  0  0  0  0  0
    6.0660   -0.0079    0.6206 O   0  0  0  0  0  0  0  0  0  0  0  0
    6.3383    0.9174    0.6173 H   0  0  0  0  0  0  0  0  0  0  0  0
    4.7665   -2.2199    0.4510 H   0  0  0  0  0  0  0  0  0  0  0  0
    2.3990   -2.4737   -0.1395 H   0  0  0  0  0  0  0  0  0  0  0  0
    0.4577   -0.0014   -1.7472 H   0  0  0  0  0  0  0  0  0  0  0  0
   -1.7440   -1.3979   -1.9475 H   0  0  0  0  0  0  0  0  0  0  0  0
  1  2  1  0
  1  3  1  0
  1  4  1  0
  5  1  1  1
  5  6  1  0
  5 21  1  0
  5 29  1  0
  6  7  1  0
  6  8  1  0
  6 45  1  0
  8  9  1  0
  8 10  1  0
  8 11  1  0
 11 12  1  0
 11 20  1  0
 11 44  1  6
 12 13  2  0
 12 17  1  0
 13 14  1  0
 13 43  1  0
 14 15  2  0
 14 42  1  0
 15 16  1  0
 15 40  1  0
 16 17  2  0
 16 39  1  0
 17 18  1  0
 18 19  1  0
 18 37  1  0
 18 38  1  0
 19 20  1  0
 19 35  1  0
 19 36  1  0
 20 21  1  0
 20 34  1  1
 21 22  1  0
 21 33  1  6
 22 23  1  0
 22 24  1  0
 22 25  1  0
 25 26  1  0
 25 28  1  1
 25 29  1  0
 26 27  1  0
 29 30  1  0
 29 32  1  6
 30 31  1  0
 40 41  1  0
M  END
$$$$

     RDKit          3D

 45 48  0  0  0  0  0  0  0  0999 V2000
   -2.1539   -1.3693    1.4831 C   0  0  0  0  0  0  0  0  0  0  0  0
   -2.6174   -0.6934    2.1942 H   0  0  0  0  0  0  0  0  0  0  0  0
   -2.6974   -2.3099    1.5126 H   0  0  0  0  0  0  0  0  0  0  0  0
   -1.1304   -1.5477    1.7939 H   0  0  0  0  0  0  0  0  0  0  0  0
   -2.2292   -0.8124    0.0603 C   0  0  2  0  0  0  0  0  0  0  0  0
   -1.5477   -1.7615   -0.9228 C   0  0  0  0  0  0  0  0  0  0  0  0
   -1.9538   -2.7682   -0.8160 H   0  0  0  0  0  0  0  0  0  0  0  0
   -0.0363   -1.7829   -0.6815 C   0  0  0  0  0  0  0  0  0  0  0  0
    0.4320   -2.4051   -1.4472 H   0  0  0  0  0  0  0  0  0  0  0  0
    0.1674   -2.2395    0.2869 H   0  0  0  0  0  0  0  0  0  0  0  0
    0.5910   -0.3869   -0.7299 C   0  0  2  0  0  0  0  0  0  0  0  0
    2.0590   -0.3672   -0.3911 C   0  0  0  0  0  0  0  0  0  0  0  0
    2.8306   -1.4827   -0.1024 C   0  0  0  0  0  0  0  0  0  0  0  0
    4.1662   -1.3549    0.2309 C   0  0  0  0  0  0  0  0  0  0  0  0
    4.7534   -0.0974    0.2881 C   0  0  0  0  0  0  0  0  0  0  0  0
    3.9895    1.0263    0.0014 C   0  0  0  0  0  0  0  0  0  0  0  0
    2.6548    0.8937   -0.3390 C   0  0  0  0  0  0  0  0  0  0  0  0
    1.7928    2.0679   -0.6775 C   0  0  0  0  0  0  0  0  0  0  0  0
    0.4708    2.0234    0.1026 C   0  0  0  0  0  0  0  0  0  0  0  0
   -0.1202    0.6047    0.2223 C   0  0  1  0  0  0  0  0  0  0  0  0
   -1.6071    0.5837   -0.1099 C   0  0  2  0  0  0  0  0  0  0  0  0
   -2.5552    1.4962    0.6710 C   0  0  0  0  0  0  0  0  0  0  0  0
   -2.5427    2.5261    0.3132 H   0  0  0  0  0  0  0  0  0  0  0  0
   -2.2974    1.5103    1.7285 H   0  0  0  0  0  0  0  0  0  0  0  0
   -3.9523    0.8720    0.4455 C   0  0  1  0  0  0  0  0  0  0  0  0
   -4.8294    1.6977   -0.2834 O   0  0  0  0  0  0  0  0  0  0  0  0
   -4.4126    1.9313   -1.1209 H   0  0  0  0  0  0  0  0  0  0  0  0
   -4.4713    0.6994    1.3927 H   0  0  0  0  0  0  0  0  0  0  0  0
   -3.7018   -0.4933   -0.2564 C   0  0  2  0  0  0  0  0  0  0  0  0
   -4.5737   -1.5091    0.1627 O   0  0  0  0  0  0  0  0  0  0  0  0
   -5.4770   -1.1900    0.0612 H   0  0  0  0  0  0  0  0  0  0  0  0
   -3.8126   -0.3416   -1.3461 H   0  0  0  0  0  0  0  0  0  0  0  0
   -1.6992    0.8440   -1.1740 H   0  0  0  0  0  0  0  0  0  0  0  0
    0.0293    0.2504    1.2452 H   0  0  0  0  0  0  0  0  0  0  0  0
    0.6393    2.4250    1.1026 H   0  0  0  0  0  0  0  0  0  0  0  0
   -0.2416    2.6826   -0.3959 H   0  0  0  0  0  0  0  0  0  0  0  0
    1.5749    2.0379   -1.7499 H   0  0  0  0  0  0  0  0  0  0  0  0
    2.3118    3.0057   -0.4738 H   0  0  0  0  0  0  0  0  0  0  0  0
    4.4414    2.0101    0.0414 H   0  0  0  0  0  0  0  0  0  0  0  0
    6.0714   -0.0099    0.6254 O   0  0  0  0  0  0  0  0  0  0  0  0
    6.3443    0.9153    0.6260 H   0  0  0  0  0  0  0  0  0  0  0  0
    4.7698   -2.2203    0.4527 H   0  0  0  0  0  0  0  0  0  0  0  0
    2.4027   -2.4716   -0.1390 H   0  0  0  0  0  0  0  0  0  0  0  0
    0.4699   -0.0013   -1.7516 H   0  0  0  0  0  0  0  0  0  0  0  0
   -1.7467   -1.4281   -1.9449 H   0  0  0  0  0  0  0  0  0  0  0  0
  1  2  1  0
  1  3  1  0
  1  4  1  0
  5  1  1  1
  5  6  1  0
  5 21  1  0
  5 29  1  0
  6  7  1  0
  6  8  1  0
  6 45  1  0
  8  9  1  0
  8 10  1  0
  8 11  1  0
 11 12  1  0
 11 20  1  0
 11 44  1  6
 12 13  2  0
 12 17  1  0
 13 14  1  0
 13 43  1  0
 14 15  2  0
 14 42  1  0
 15 16  1  0
 15 40  1  0
 16 17  2  0
 16 39  1  0
 17 18  1  0
 18 19  1  0
 18 37  1  0
 18 38  1  0
 19 20  1  0
 19 35  1  0
 19 36  1  0
 20 21  1  0
 20 34  1  1
 21 22  1  0
 21 33  1  6
 22 23  1  0
 22 24  1  0
 22 25  1  0
 25 26  1  0
 25 28  1  1
 25 29  1  0
 26 27  1  0
 29 30  1  0
 29 32  1  6
 30 31  1  0
 40 41  1  0
M  END
$$$$

     RDKit          3D

 45 48  0  0  0  0  0  0  0  0999 V2000
   -2.2249   -1.0559    1.7327 C   0  0  0  0  0  0  0  0  0  0  0  0
   -1.2205   -0.9705    2.1338 H   0  0  0  0  0  0  0  0  0  0  0  0
   -2.8730   -0.3626    2.2594 H   0  0  0  0  0  0  0  0  0  0  0  0
   -2.5850   -2.0619    1.9379 H   0  0  0  0  0  0  0  0  0  0  0  0
   -2.2624   -0.7971    0.2238 C   0  0  2  0  0  0  0  0  0  0  0  0
   -1.5109   -1.8966   -0.5243 C   0  0  0  0  0  0  0  0  0  0  0  0
   -1.8700   -2.8852   -0.2264 H   0  0  0  0  0  0  0  0  0  0  0  0
   -0.0043   -1.8099   -0.2573 C   0  0  0  0  0  0  0  0  0  0  0  0
    0.4821   -2.5699   -0.8692 H   0  0  0  0  0  0  0  0  0  0  0  0
    0.2065   -2.0448    0.7869 H   0  0  0  0  0  0  0  0  0  0  0  0
    0.5689   -0.4248   -0.5916 C   0  0  2  0  0  0  0  0  0  0  0  0
    2.0584   -0.3152   -0.3346 C   0  0  0  0  0  0  0  0  0  0  0  0
    2.9087   -1.3909   -0.5773 C   0  0  0  0  0  0  0  0  0  0  0  0
    4.2700   -1.3129   -0.3716 C   0  0  0  0  0  0  0  0  0  0  0  0
    4.8279   -0.1254    0.0854 C   0  0  0  0  0  0  0  0  0  0  0  0
    3.9986    0.9608    0.3092 C   0  0  0  0  0  0  0  0  0  0  0  0
    2.6269    0.8823    0.0994 C   0  0  0  0  0  0  0  0  0  0  0  0
    1.8091    2.1157    0.3741 C   0  0  0  0  0  0  0  0  0  0  0  0
    0.4053    2.0286   -0.2093 C   0  0  0  0  0  0  0  0  0  0  0  0
   -0.1956    0.6772    0.1608 C   0  0  1  0  0  0  0  0  0  0  0  0
   -1.6691    0.5561   -0.1999 C   0  0  2  0  0  0  0  0  0  0  0  0
   -2.6707    1.5658    0.3552 C   0  0  0  0  0  0  0  0  0  0  0  0
   -2.6110    2.5288   -0.1517 H   0  0  0  0  0  0  0  0  0  0  0  0
   -2.5224    1.7236    1.4227 H   0  0  0  0  0  0  0  0  0  0  0  0
   -4.0334    0.8949    0.0692 C   0  0  1  0  0  0  0  0  0  0  0  0
   -4.6545    1.4205   -1.0826 O   0  0  0  0  0  0  0  0  0  0  0  0
   -4.9400    2.3219   -0.9001 H   0  0  0  0  0  0  0  0  0  0  0  0
   -4.7129    0.9662    0.9283 H   0  0  0  0  0  0  0  0  0  0  0  0
   -3.7379   -0.5990   -0.1999 C   0  0  2  0  0  0  0  0  0  0  0  0
   -4.6706   -1.3876    0.4940 O   0  0  0  0  0  0  0  0  0  0  0  0
   -4.5236   -2.3099    0.2605 H   0  0  0  0  0  0  0  0  0  0  0  0
   -3.8398   -0.7548   -1.2841 H   0  0  0  0  0  0  0  0  0  0  0  0
   -1.7473    0.6080   -1.2934 H   0  0  0  0  0  0  0  0  0  0  0  0
   -0.0653    0.5366    1.2376 H   0  0  0  0  0  0  0  0  0  0  0  0
   -0.2057    2.8420    0.1847 H   0  0  0  0  0  0  0  0  0  0  0  0
    0.4428    2.1292   -1.2961 H   0  0  0  0  0  0  0  0  0  0  0  0
    2.3304    2.9912   -0.0211 H   0  0  0  0  0  0  0  0  0  0  0  0
    1.7390    2.2464    1.4597 H   0  0  0  0  0  0  0  0  0  0  0  0
    4.4251    1.8960    0.6525 H   0  0  0  0  0  0  0  0  0  0  0  0
    6.1742   -0.0684    0.2882 O   0  0  0  0  0  0  0  0  0  0  0  0
    6.4176    0.8121    0.5978 H   0  0  0  0  0  0  0  0  0  0  0  0
    4.9138   -2.1565   -0.5611 H   0  0  0  0  0  0  0  0  0  0  0  0
    2.5073   -2.3220   -0.9440 H   0  0  0  0  0  0  0  0  0  0  0  0
    0.4106   -0.2575   -1.6672 H   0  0  0  0  0  0  0  0  0  0  0  0
   -1.6881   -1.7865   -1.5978 H   0  0  0  0  0  0  0  0  0  0  0  0
  1  2  1  0
  1  3  1  0
  1  4  1  0
  5  1  1  1
  5  6  1  0
  5 21  1  0
  5 29  1  0
  6  7  1  0
  6  8  1  0
  6 45  1  0
  8  9  1  0
  8 10  1  0
  8 11  1  0
 11 12  1  0
 11 20  1  0
 11 44  1  6
 12 13  2  0
 12 17  1  0
 13 14  1  0
 13 43  1  0
 14 15  2  0
 14 42  1  0
 15 16  1  0
 15 40  1  0
 16 17  2  0
 16 39  1  0
 17 18  1  0
 18 19  1  0
 18 37  1  0
 18 38  1  0
 19 20  1  0
 19 35  1  0
 19 36  1  0
 20 21  1  0
 20 34  1  1
 21 22  1  0
 21 33  1  6
 22 23  1  0
 22 24  1  0
 22 25  1  0
 25 26  1  0
 25 28  1  1
 25 29  1  0
 26 27  1  0
 29 30  1  0
 29 32  1  6
 30 31  1  0
 40 41  1  0
M  END
$$$$
