
     RDKit          3D

 32 34  0  0  0  0  0  0  0  0999 V2000
   -4.6131   -3.2723    0.0249 O   0  0  0  0  0  0  0  0  0  0  0  0
   -4.3345   -2.1054   -0.0117 C   0  0  0  0  0  0  0  0  0  0  0  0
   -5.2672   -1.1431   -0.0699 O   0  0  0  0  0  0  0  0  0  0  0  0
   -4.8399   -0.2711   -0.0831 H   0  0  0  0  0  0  0  0  0  0  0  0
   -2.9513   -1.5887    0.0034 C   0  0  0  0  0  0  0  0  0  0  0  0
   -2.7189   -0.2803   -0.0501 N   0  0  0  0  0  0  0  0  0  0  0  0
   -1.4012   -0.1288   -0.0156 N   0  0  0  0  0  0  0  0  0  0  0  0
   -0.7560   -1.3315    0.0531 C   0  0  0  0  0  0  0  0  0  0  0  0
   -1.7412   -2.2994    0.0730 C   0  0  0  0  0  0  0  0  0  0  0  0
   -1.6239   -3.3617    0.1033 H   0  0  0  0  0  0  0  0  0  0  0  0
    0.6897   -1.5071    0.0053 C   0  0  0  0  0  0  0  0  0  0  0  0
    1.2919   -2.4728    0.8098 C   0  0  0  0  0  0  0  0  0  0  0  0
    2.6566   -2.6801    0.7599 C   0  0  0  0  0  0  0  0  0  0  0  0
    3.4299   -1.9232   -0.1074 C   0  0  0  0  0  0  0  0  0  0  0  0
    2.8454   -0.9704   -0.9289 C   0  0  0  0  0  0  0  0  0  0  0  0
    1.4809   -0.7662   -0.8723 C   0  0  0  0  0  0  0  0  0  0  0  0
    1.0259   -0.0356   -1.5244 H   0  0  0  0  0  0  0  0  0  0  0  0
    3.4550   -0.3981   -1.6099 H   0  0  0  0  0  0  0  0  0  0  0  0
    5.1369   -2.1732   -0.1714 Cl  0  0  0  0  0  0  0  0  0  0  0  0
    3.1208   -3.4237    1.3880 H   0  0  0  0  0  0  0  0  0  0  0  0
    0.6841   -3.0548    1.4856 H   0  0  0  0  0  0  0  0  0  0  0  0
   -0.8578    1.1643    0.0267 C   0  0  0  0  0  0  0  0  0  0  0  0
   -1.4595    2.1691   -0.7238 C   0  0  0  0  0  0  0  0  0  0  0  0
   -0.9577    3.4554   -0.6877 C   0  0  0  0  0  0  0  0  0  0  0  0
    0.1472    3.7354    0.1032 C   0  0  0  0  0  0  0  0  0  0  0  0
    0.7399    2.7423    0.8703 C   0  0  0  0  0  0  0  0  0  0  0  0
    0.2331    1.4577    0.8390 C   0  0  0  0  0  0  0  0  0  0  0  0
    0.6792    0.6885    1.4496 H   0  0  0  0  0  0  0  0  0  0  0  0
    1.5867    2.9764    1.4952 H   0  0  0  0  0  0  0  0  0  0  0  0
    0.7851    5.3372    0.1430 Cl  0  0  0  0  0  0  0  0  0  0  0  0
   -1.4171    4.2375   -1.2706 H   0  0  0  0  0  0  0  0  0  0  0  0
   -2.3189    1.9298   -1.3300 H   0  0  0  0  0  0  0  0  0  0  0  0
  1  2  2  0
  2  3  1  0
  2  5  1  0
  3  4  1  0
  5  6  2  0
  5  9  1  0
  6  7  1  0
  7  8  1  0
  7 22  1  0
  8  9  2  0
  8 11  1  0
  9 10  1  0
 11 12  2  0
 11 16  1  0
 12 13  1  0
 12 21  1  0
 13 14  2  0
 13 20  1  0
 14 15  1  0
 14 19  1  0
 15 16  2  0
 15 18  1  0
 16 17  1  0
 22 23  2  0
 22 27  1  0
 23 24  1  0
 23 32  1  0
 24 25  2  0
 24 31  1  0
 25 26  1  0
 25 30  1  0
 26 27  2  0
 26 29  1  0
 27 28  1  0
M  END
$$$$

     RDKit          3D

 32 34  0  0  0  0  0  0  0  0999 V2000
    5.3599    1.1251   -0.3375 O   0  0  0  0  0  0  0  0  0  0  0  0
    4.4406    1.8364   -0.0531 C   0  0  0  0  0  0  0  0  0  0  0  0
    4.6393    3.1409    0.2401 O   0  0  0  0  0  0  0  0  0  0  0  0
    3.8192    3.5985    0.4647 H   0  0  0  0  0  0  0  0  0  0  0  0
    3.0304    1.3962    0.0006 C   0  0  0  0  0  0  0  0  0  0  0  0
    2.7208    0.1089   -0.0463 N   0  0  0  0  0  0  0  0  0  0  0  0
    1.4022    0.0265    0.0008 N   0  0  0  0  0  0  0  0  0  0  0  0
    0.8165    1.2585    0.0676 C   0  0  0  0  0  0  0  0  0  0  0  0
    1.8523    2.1722    0.0811 C   0  0  0  0  0  0  0  0  0  0  0  0
    1.7445    3.2393    0.0932 H   0  0  0  0  0  0  0  0  0  0  0  0
   -0.6173    1.5156    0.0158 C   0  0  0  0  0  0  0  0  0  0  0  0
   -1.1779    2.4902    0.8388 C   0  0  0  0  0  0  0  0  0  0  0  0
   -2.5289    2.7728    0.7779 C   0  0  0  0  0  0  0  0  0  0  0  0
   -3.3296    2.0826   -0.1193 C   0  0  0  0  0  0  0  0  0  0  0  0
   -2.7860    1.1198   -0.9575 C   0  0  0  0  0  0  0  0  0  0  0  0
   -1.4357    0.8404   -0.8896 C   0  0  0  0  0  0  0  0  0  0  0  0
   -1.0107    0.1008   -1.5514 H   0  0  0  0  0  0  0  0  0  0  0  0
   -3.4163    0.5978   -1.6597 H   0  0  0  0  0  0  0  0  0  0  0  0
   -5.0192    2.4284   -0.1985 Cl  0  0  0  0  0  0  0  0  0  0  0  0
   -2.9610    3.5228    1.4211 H   0  0  0  0  0  0  0  0  0  0  0  0
   -0.5515    3.0192    1.5413 H   0  0  0  0  0  0  0  0  0  0  0  0
    0.8006   -1.2413    0.0450 C   0  0  0  0  0  0  0  0  0  0  0  0
    1.4023   -2.2818   -0.6559 C   0  0  0  0  0  0  0  0  0  0  0  0
    0.8494   -3.5467   -0.6242 C   0  0  0  0  0  0  0  0  0  0  0  0
   -0.3055   -3.7691    0.1123 C   0  0  0  0  0  0  0  0  0  0  0  0
   -0.8960   -2.7415    0.8335 C   0  0  0  0  0  0  0  0  0  0  0  0
   -0.3385   -1.4774    0.8075 C   0  0  0  0  0  0  0  0  0  0  0  0
   -0.7838   -0.6838    1.3865 H   0  0  0  0  0  0  0  0  0  0  0  0
   -1.7806   -2.9324    1.4196 H   0  0  0  0  0  0  0  0  0  0  0  0
   -1.0089   -5.3436    0.1444 Cl  0  0  0  0  0  0  0  0  0  0  0  0
    1.3086   -4.3570   -1.1673 H   0  0  0  0  0  0  0  0  0  0  0  0
    2.3061   -2.0830   -1.2094 H   0  0  0  0  0  0  0  0  0  0  0  0
  1  2  2  0
  2  3  1  0
  2  5  1  0
  3  4  1  0
  5  6  2  0
  5  9  1  0
  6  7  1  0
  7  8  1  0
  7 22  1  0
  8  9  2  0
  8 11  1  0
  9 10  1  0
 11 12  2  0
 11 16  1  0
 12 13  1  0
 12 21  1  0
 13 14  2  0
 13 20  1  0
 14 15  1  0
 14 19  1  0
 15 16  2  0
 15 18  1  0
 16 17  1  0
 22 23  2  0
 22 27  1  0
 23 24  1  0
 23 32  1  0
 24 25  2  0
 24 31  1  0
 25 26  1  0
 25 30  1  0
 26 27  2  0
 26 29  1  0
 27 28  1  0
M  END
$$$$
