
     RDKit          3D

 34 37  0  0  0  0  0  0  0  0999 V2000
   -2.9031   -1.1695   -1.1670 Br  0  0  0  0  0  0  0  0  0  0  0  0
   -1.9760   -1.2233    0.4957 C   0  0  0  0  0  0  0  0  0  0  0  0
   -2.7336   -1.3221    1.6496 C   0  0  0  0  0  0  0  0  0  0  0  0
   -2.1022   -1.3707    2.8791 C   0  0  0  0  0  0  0  0  0  0  0  0
   -0.7202   -1.3304    2.9430 C   0  0  0  0  0  0  0  0  0  0  0  0
    0.0238   -1.2336    1.7811 C   0  0  0  0  0  0  0  0  0  0  0  0
   -0.5881   -1.1715    0.5345 C   0  0  0  0  0  0  0  0  0  0  0  0
    0.2462   -1.0412   -0.7160 C   0  0  0  0  0  0  0  0  0  0  0  0
    1.4413   -0.2806   -0.4812 N   0  0  0  0  0  0  0  0  0  0  0  0
    2.7252   -0.7570   -0.4205 C   0  0  0  0  0  0  0  0  0  0  0  0
    3.2719   -2.0175   -0.6087 C   0  0  0  0  0  0  0  0  0  0  0  0
    4.6393   -2.1363   -0.4700 C   0  0  0  0  0  0  0  0  0  0  0  0
    5.4434   -1.0376   -0.1542 C   0  0  0  0  0  0  0  0  0  0  0  0
    4.9103    0.2180    0.0371 C   0  0  0  0  0  0  0  0  0  0  0  0
    3.5320    0.3620   -0.0953 C   0  0  0  0  0  0  0  0  0  0  0  0
    2.7417    1.4653    0.0461 N   0  0  0  0  0  0  0  0  0  0  0  0
    1.5172    1.0575   -0.1816 C   0  0  0  0  0  0  0  0  0  0  0  0
    0.3772    1.9366   -0.1132 C   0  0  0  0  0  0  0  0  0  0  0  0
    0.4629    3.2630    0.2259 C   0  0  0  0  0  0  0  0  0  0  0  0
   -1.0849    3.9906    0.2109 S   0  0  0  0  0  0  0  0  0  0  0  0
   -1.7452    2.4534   -0.2534 C   0  0  0  0  0  0  0  0  0  0  0  0
   -0.8902    1.5108   -0.3781 N   0  0  0  0  0  0  0  0  0  0  0  0
   -2.7961    2.3285   -0.4226 H   0  0  0  0  0  0  0  0  0  0  0  0
    1.3488    3.8100    0.4708 H   0  0  0  0  0  0  0  0  0  0  0  0
    5.5257    1.0685    0.2815 H   0  0  0  0  0  0  0  0  0  0  0  0
    6.5090   -1.1842   -0.0583 H   0  0  0  0  0  0  0  0  0  0  0  0
    5.1017   -3.1024   -0.6082 H   0  0  0  0  0  0  0  0  0  0  0  0
    2.6607   -2.8749   -0.8510 H   0  0  0  0  0  0  0  0  0  0  0  0
   -0.3394   -0.5506   -1.4991 H   0  0  0  0  0  0  0  0  0  0  0  0
    0.5387   -2.0349   -1.0724 H   0  0  0  0  0  0  0  0  0  0  0  0
    1.1022   -1.2023    1.8395 H   0  0  0  0  0  0  0  0  0  0  0  0
   -0.2186   -1.3732    3.8976 H   0  0  0  0  0  0  0  0  0  0  0  0
   -2.6908   -1.4411    3.7807 H   0  0  0  0  0  0  0  0  0  0  0  0
   -3.8103   -1.3568    1.5828 H   0  0  0  0  0  0  0  0  0  0  0  0
  1  2  1  0
  2  3  2  0
  2  7  1  0
  3  4  1  0
  3 34  1  0
  4  5  2  0
  4 33  1  0
  5  6  1  0
  5 32  1  0
  6  7  2  0
  6 31  1  0
  7  8  1  0
  8  9  1  0
  8 29  1  0
  8 30  1  0
  9 10  1  0
  9 17  1  0
 10 11  2  0
 10 15  1  0
 11 12  1  0
 11 28  1  0
 12 13  2  0
 12 27  1  0
 13 14  1  0
 13 26  1  0
 14 15  2  0
 14 25  1  0
 15 16  1  0
 16 17  2  0
 17 18  1  0
 18 19  2  0
 18 22  1  0
 19 20  1  0
 19 24  1  0
 20 21  1  0
 21 22  2  0
 21 23  1  0
M  END
$$$$

     RDKit          3D

 34 37  0  0  0  0  0  0  0  0999 V2000
   -0.0529   -1.5790    1.2700 Br  0  0  0  0  0  0  0  0  0  0  0  0
    1.5389   -1.6677    0.2189 C   0  0  0  0  0  0  0  0  0  0  0  0
    2.6158   -2.3634    0.7434 C   0  0  0  0  0  0  0  0  0  0  0  0
    3.7765   -2.4896    0.0030 C   0  0  0  0  0  0  0  0  0  0  0  0
    3.8499   -1.9289   -1.2607 C   0  0  0  0  0  0  0  0  0  0  0  0
    2.7706   -1.2286   -1.7676 C   0  0  0  0  0  0  0  0  0  0  0  0
    1.5968   -1.0737   -1.0376 C   0  0  0  0  0  0  0  0  0  0  0  0
    0.4481   -0.2855   -1.6100 C   0  0  0  0  0  0  0  0  0  0  0  0
    0.1163    0.8611   -0.7998 N   0  0  0  0  0  0  0  0  0  0  0  0
    0.9915    1.8379   -0.3951 C   0  0  0  0  0  0  0  0  0  0  0  0
    2.3488    2.0337   -0.6023 C   0  0  0  0  0  0  0  0  0  0  0  0
    2.9167    3.1536   -0.0299 C   0  0  0  0  0  0  0  0  0  0  0  0
    2.1636    4.0561    0.7255 C   0  0  0  0  0  0  0  0  0  0  0  0
    0.8145    3.8729    0.9339 C   0  0  0  0  0  0  0  0  0  0  0  0
    0.2199    2.7502    0.3658 C   0  0  0  0  0  0  0  0  0  0  0  0
   -1.0755    2.3252    0.4038 N   0  0  0  0  0  0  0  0  0  0  0  0
   -1.1087    1.2132   -0.2878 C   0  0  0  0  0  0  0  0  0  0  0  0
   -2.3298    0.4616   -0.4515 C   0  0  0  0  0  0  0  0  0  0  0  0
   -3.4854    0.7798    0.2151 C   0  0  0  0  0  0  0  0  0  0  0  0
   -4.7359   -0.3130   -0.1885 S   0  0  0  0  0  0  0  0  0  0  0  0
   -3.6179   -1.1260   -1.2349 C   0  0  0  0  0  0  0  0  0  0  0  0
   -2.4404   -0.6243   -1.2691 N   0  0  0  0  0  0  0  0  0  0  0  0
   -3.9133   -1.9851   -1.8031 H   0  0  0  0  0  0  0  0  0  0  0  0
   -3.6290    1.5844    0.9047 H   0  0  0  0  0  0  0  0  0  0  0  0
    0.2268    4.5653    1.5146 H   0  0  0  0  0  0  0  0  0  0  0  0
    2.6576    4.9162    1.1529 H   0  0  0  0  0  0  0  0  0  0  0  0
    3.9718    3.3381   -0.1692 H   0  0  0  0  0  0  0  0  0  0  0  0
    2.9427    1.3432   -1.1811 H   0  0  0  0  0  0  0  0  0  0  0  0
   -0.4515   -0.9076   -1.6753 H   0  0  0  0  0  0  0  0  0  0  0  0
    0.7119    0.0530   -2.6194 H   0  0  0  0  0  0  0  0  0  0  0  0
    2.8325   -0.7900   -2.7536 H   0  0  0  0  0  0  0  0  0  0  0  0
    4.7482   -2.0322   -1.8498 H   0  0  0  0  0  0  0  0  0  0  0  0
    4.6160   -3.0302    0.4119 H   0  0  0  0  0  0  0  0  0  0  0  0
    2.5386   -2.8061    1.7245 H   0  0  0  0  0  0  0  0  0  0  0  0
  1  2  1  0
  2  3  2  0
  2  7  1  0
  3  4  1  0
  3 34  1  0
  4  5  2  0
  4 33  1  0
  5  6  1  0
  5 32  1  0
  6  7  2  0
  6 31  1  0
  7  8  1  0
  8  9  1  0
  8 29  1  0
  8 30  1  0
  9 10  1  0
  9 17  1  0
 10 11  2  0
 10 15  1  0
 11 12  1  0
 11 28  1  0
 12 13  2  0
 12 27  1  0
 13 14  1  0
 13 26  1  0
 14 15  2  0
 14 25  1  0
 15 16  1  0
 16 17  2  0
 17 18  1  0
 18 19  2  0
 18 22  1  0
 19 20  1  0
 19 24  1  0
 20 21  1  0
 21 22  2  0
 21 23  1  0
M  END
$$$$

     RDKit          3D

 34 37  0  0  0  0  0  0  0  0999 V2000
   -1.0493   -1.9568   -0.8734 Br  0  0  0  0  0  0  0  0  0  0  0  0
    0.6940   -1.8848   -0.0910 C   0  0  0  0  0  0  0  0  0  0  0  0
    1.7052   -2.5814   -0.7344 C   0  0  0  0  0  0  0  0  0  0  0  0
    2.9734   -2.6127   -0.1868 C   0  0  0  0  0  0  0  0  0  0  0  0
    3.2186   -1.9641    1.0117 C   0  0  0  0  0  0  0  0  0  0  0  0
    2.2050   -1.2623    1.6367 C   0  0  0  0  0  0  0  0  0  0  0  0
    0.9276   -1.1901    1.0909 C   0  0  0  0  0  0  0  0  0  0  0  0
   -0.1347   -0.3807    1.7927 C   0  0  0  0  0  0  0  0  0  0  0  0
   -0.7808    0.5796    0.9342 N   0  0  0  0  0  0  0  0  0  0  0  0
   -2.1347    0.7120    0.7468 C   0  0  0  0  0  0  0  0  0  0  0  0
   -3.2301    0.0859    1.3212 C   0  0  0  0  0  0  0  0  0  0  0  0
   -4.4781    0.4741    0.8808 C   0  0  0  0  0  0  0  0  0  0  0  0
   -4.6382    1.4553   -0.1010 C   0  0  0  0  0  0  0  0  0  0  0  0
   -3.5567    2.0826   -0.6784 C   0  0  0  0  0  0  0  0  0  0  0  0
   -2.2876    1.7055   -0.2498 C   0  0  0  0  0  0  0  0  0  0  0  0
   -1.0568    2.1497   -0.6390 N   0  0  0  0  0  0  0  0  0  0  0  0
   -0.1927    1.4772    0.0779 C   0  0  0  0  0  0  0  0  0  0  0  0
    1.2297    1.7036   -0.0266 C   0  0  0  0  0  0  0  0  0  0  0  0
    1.8255    2.2368   -1.1391 C   0  0  0  0  0  0  0  0  0  0  0  0
    3.5082    2.4222   -0.8899 S   0  0  0  0  0  0  0  0  0  0  0  0
    3.2884    1.7738    0.7047 C   0  0  0  0  0  0  0  0  0  0  0  0
    2.0863    1.4522    1.0027 N   0  0  0  0  0  0  0  0  0  0  0  0
    4.1182    1.6609    1.3731 H   0  0  0  0  0  0  0  0  0  0  0  0
    1.3516    2.5212   -2.0549 H   0  0  0  0  0  0  0  0  0  0  0  0
   -3.6725    2.8390   -1.4375 H   0  0  0  0  0  0  0  0  0  0  0  0
   -5.6375    1.7221   -0.4115 H   0  0  0  0  0  0  0  0  0  0  0  0
   -5.3550    0.0077    1.3044 H   0  0  0  0  0  0  0  0  0  0  0  0
   -3.1228   -0.6761    2.0794 H   0  0  0  0  0  0  0  0  0  0  0  0
    0.3246    0.1367    2.6419 H   0  0  0  0  0  0  0  0  0  0  0  0
   -0.9151   -1.0512    2.1689 H   0  0  0  0  0  0  0  0  0  0  0  0
    2.4018   -0.7463    2.5635 H   0  0  0  0  0  0  0  0  0  0  0  0
    4.2011   -1.9994    1.4568 H   0  0  0  0  0  0  0  0  0  0  0  0
    3.7609   -3.1517   -0.6907 H   0  0  0  0  0  0  0  0  0  0  0  0
    1.4909   -3.1003   -1.6560 H   0  0  0  0  0  0  0  0  0  0  0  0
  1  2  1  0
  2  3  2  0
  2  7  1  0
  3  4  1  0
  3 34  1  0
  4  5  2  0
  4 33  1  0
  5  6  1  0
  5 32  1  0
  6  7  2  0
  6 31  1  0
  7  8  1  0
  8  9  1  0
  8 29  1  0
  8 30  1  0
  9 10  1  0
  9 17  1  0
 10 11  2  0
 10 15  1  0
 11 12  1  0
 11 28  1  0
 12 13  2  0
 12 27  1  0
 13 14  1  0
 13 26  1  0
 14 15  2  0
 14 25  1  0
 15 16  1  0
 16 17  2  0
 17 18  1  0
 18 19  2  0
 18 22  1  0
 19 20  1  0
 19 24  1  0
 20 21  1  0
 21 22  2  0
 21 23  1  0
M  END
$$$$

     RDKit          3D

 34 37  0  0  0  0  0  0  0  0999 V2000
   -2.5865   -1.5237   -0.9876 Br  0  0  0  0  0  0  0  0  0  0  0  0
   -1.8577   -0.9164    0.6720 C   0  0  0  0  0  0  0  0  0  0  0  0
   -2.7497   -0.4805    1.6375 C   0  0  0  0  0  0  0  0  0  0  0  0
   -2.2730   -0.0322    2.8550 C   0  0  0  0  0  0  0  0  0  0  0  0
   -0.9110   -0.0352    3.1046 C   0  0  0  0  0  0  0  0  0  0  0  0
   -0.0330   -0.4744    2.1331 C   0  0  0  0  0  0  0  0  0  0  0  0
   -0.4860   -0.9129    0.8924 C   0  0  0  0  0  0  0  0  0  0  0  0
    0.5202   -1.3291   -0.1506 C   0  0  0  0  0  0  0  0  0  0  0  0
    1.5910   -0.3708   -0.2410 N   0  0  0  0  0  0  0  0  0  0  0  0
    2.9412   -0.6131   -0.1910 C   0  0  0  0  0  0  0  0  0  0  0  0
    3.6883   -1.7775   -0.1061 C   0  0  0  0  0  0  0  0  0  0  0  0
    5.0613   -1.6408   -0.0790 C   0  0  0  0  0  0  0  0  0  0  0  0
    5.6748   -0.3874   -0.1369 C   0  0  0  0  0  0  0  0  0  0  0  0
    4.9394    0.7753   -0.2227 C   0  0  0  0  0  0  0  0  0  0  0  0
    3.5539    0.6618   -0.2480 C   0  0  0  0  0  0  0  0  0  0  0  0
    2.5873    1.6299   -0.3209 N   0  0  0  0  0  0  0  0  0  0  0  0
    1.4528    0.9956   -0.3116 C   0  0  0  0  0  0  0  0  0  0  0  0
    0.1348    1.6241   -0.3643 C   0  0  0  0  0  0  0  0  0  0  0  0
   -0.7376    1.5348   -1.4113 C   0  0  0  0  0  0  0  0  0  0  0  0
   -2.1795    2.3992   -1.0696 S   0  0  0  0  0  0  0  0  0  0  0  0
   -1.4944    2.8161    0.4701 C   0  0  0  0  0  0  0  0  0  0  0  0
   -0.3211    2.3566    0.6872 N   0  0  0  0  0  0  0  0  0  0  0  0
   -2.0403    3.4144    1.1712 H   0  0  0  0  0  0  0  0  0  0  0  0
   -0.6119    1.0295   -2.3475 H   0  0  0  0  0  0  0  0  0  0  0  0
    5.4073    1.7452   -0.2681 H   0  0  0  0  0  0  0  0  0  0  0  0
    6.7531   -0.3350   -0.1140 H   0  0  0  0  0  0  0  0  0  0  0  0
    5.6779   -2.5249   -0.0126 H   0  0  0  0  0  0  0  0  0  0  0  0
    3.2247   -2.7526   -0.0647 H   0  0  0  0  0  0  0  0  0  0  0  0
    0.0388   -1.4421   -1.1289 H   0  0  0  0  0  0  0  0  0  0  0  0
    0.9569   -2.2954    0.1228 H   0  0  0  0  0  0  0  0  0  0  0  0
    1.0299   -0.4655    2.3243 H   0  0  0  0  0  0  0  0  0  0  0  0
   -0.5312    0.3100    4.0531 H   0  0  0  0  0  0  0  0  0  0  0  0
   -2.9668    0.3173    3.6037 H   0  0  0  0  0  0  0  0  0  0  0  0
   -3.8087   -0.4874    1.4292 H   0  0  0  0  0  0  0  0  0  0  0  0
  1  2  1  0
  2  3  2  0
  2  7  1  0
  3  4  1  0
  3 34  1  0
  4  5  2  0
  4 33  1  0
  5  6  1  0
  5 32  1  0
  6  7  2  0
  6 31  1  0
  7  8  1  0
  8  9  1  0
  8 29  1  0
  8 30  1  0
  9 10  1  0
  9 17  1  0
 10 11  2  0
 10 15  1  0
 11 12  1  0
 11 28  1  0
 12 13  2  0
 12 27  1  0
 13 14  1  0
 13 26  1  0
 14 15  2  0
 14 25  1  0
 15 16  1  0
 16 17  2  0
 17 18  1  0
 18 19  2  0
 18 22  1  0
 19 20  1  0
 19 24  1  0
 20 21  1  0
 21 22  2  0
 21 23  1  0
M  END
$$$$

     RDKit          3D

 34 37  0  0  0  0  0  0  0  0999 V2000
   -0.6942   -2.2869   -0.6310 Br  0  0  0  0  0  0  0  0  0  0  0  0
    0.9733   -1.7299    0.0989 C   0  0  0  0  0  0  0  0  0  0  0  0
    2.1338   -2.2573   -0.4401 C   0  0  0  0  0  0  0  0  0  0  0  0
    3.3586   -1.8888    0.0844 C   0  0  0  0  0  0  0  0  0  0  0  0
    3.4168   -1.0045    1.1483 C   0  0  0  0  0  0  0  0  0  0  0  0
    2.2500   -0.4827    1.6764 C   0  0  0  0  0  0  0  0  0  0  0  0
    1.0082   -0.8270    1.1569 C   0  0  0  0  0  0  0  0  0  0  0  0
   -0.2513   -0.2297    1.7229 C   0  0  0  0  0  0  0  0  0  0  0  0
   -0.9661    0.5686    0.7566 N   0  0  0  0  0  0  0  0  0  0  0  0
   -2.3311    0.6363    0.6100 C   0  0  0  0  0  0  0  0  0  0  0  0
   -3.3787   -0.0171    1.2391 C   0  0  0  0  0  0  0  0  0  0  0  0
   -4.6550    0.3019    0.8232 C   0  0  0  0  0  0  0  0  0  0  0  0
   -4.8854    1.2419   -0.1835 C   0  0  0  0  0  0  0  0  0  0  0  0
   -3.8490    1.8963   -0.8135 C   0  0  0  0  0  0  0  0  0  0  0  0
   -2.5545    1.5885   -0.4110 C   0  0  0  0  0  0  0  0  0  0  0  0
   -1.3507    2.0730   -0.8524 N   0  0  0  0  0  0  0  0  0  0  0  0
   -0.4453    1.4541   -0.1543 C   0  0  0  0  0  0  0  0  0  0  0  0
    0.9943    1.6668   -0.3125 C   0  0  0  0  0  0  0  0  0  0  0  0
    1.7277    2.5899    0.3722 C   0  0  0  0  0  0  0  0  0  0  0  0
    3.3720    2.5362   -0.1184 S   0  0  0  0  0  0  0  0  0  0  0  0
    2.9410    1.2669   -1.2202 C   0  0  0  0  0  0  0  0  0  0  0  0
    1.7071    0.9324   -1.2088 N   0  0  0  0  0  0  0  0  0  0  0  0
    3.6769    0.8137   -1.8529 H   0  0  0  0  0  0  0  0  0  0  0  0
    1.3950    3.2883    1.1126 H   0  0  0  0  0  0  0  0  0  0  0  0
   -4.0199    2.6202   -1.5935 H   0  0  0  0  0  0  0  0  0  0  0  0
   -5.9038    1.4554   -0.4727 H   0  0  0  0  0  0  0  0  0  0  0  0
   -5.4981   -0.1884    1.2868 H   0  0  0  0  0  0  0  0  0  0  0  0
   -3.2134   -0.7486    2.0163 H   0  0  0  0  0  0  0  0  0  0  0  0
   -0.0030    0.3834    2.5995 H   0  0  0  0  0  0  0  0  0  0  0  0
   -0.9260   -1.0309    2.0442 H   0  0  0  0  0  0  0  0  0  0  0  0
    2.2979    0.2135    2.5017 H   0  0  0  0  0  0  0  0  0  0  0  0
    4.3698   -0.7159    1.5649 H   0  0  0  0  0  0  0  0  0  0  0  0
    4.2650   -2.2957   -0.3367 H   0  0  0  0  0  0  0  0  0  0  0  0
    2.0738   -2.9502   -1.2648 H   0  0  0  0  0  0  0  0  0  0  0  0
  1  2  1  0
  2  3  2  0
  2  7  1  0
  3  4  1  0
  3 34  1  0
  4  5  2  0
  4 33  1  0
  5  6  1  0
  5 32  1  0
  6  7  2  0
  6 31  1  0
  7  8  1  0
  8  9  1  0
  8 29  1  0
  8 30  1  0
  9 10  1  0
  9 17  1  0
 10 11  2  0
 10 15  1  0
 11 12  1  0
 11 28  1  0
 12 13  2  0
 12 27  1  0
 13 14  1  0
 13 26  1  0
 14 15  2  0
 14 25  1  0
 15 16  1  0
 16 17  2  0
 17 18  1  0
 18 19  2  0
 18 22  1  0
 19 20  1  0
 19 24  1  0
 20 21  1  0
 21 22  2  0
 21 23  1  0
M  END
$$$$
