
     RDKit          3D

 29 31  0  0  0  0  0  0  0  0999 V2000
    1.2580    2.9698   -0.1596 O   0  0  0  0  0  0  0  0  0  0  0  0
    0.7751    1.8321   -0.0925 C   0  0  0  0  0  0  0  0  0  0  0  0
   -0.6471    1.5773   -0.0780 C   0  0  0  0  0  0  0  0  0  0  0  0
   -1.1431    0.3189    0.0009 C   0  0  0  0  0  0  0  0  0  0  0  0
   -2.5755   -0.0034    0.0067 C   0  0  0  0  0  0  0  0  0  0  0  0
   -3.5251    0.9177    0.4475 C   0  0  0  0  0  0  0  0  0  0  0  0
   -4.8680    0.5924    0.4368 C   0  0  0  0  0  0  0  0  0  0  0  0
   -5.2830   -0.6514   -0.0111 C   0  0  0  0  0  0  0  0  0  0  0  0
   -4.3458   -1.5754   -0.4429 C   0  0  0  0  0  0  0  0  0  0  0  0
   -3.0013   -1.2575   -0.4318 C   0  0  0  0  0  0  0  0  0  0  0  0
   -2.2702   -1.9745   -0.7722 H   0  0  0  0  0  0  0  0  0  0  0  0
   -4.6640   -2.5472   -0.7898 H   0  0  0  0  0  0  0  0  0  0  0  0
   -6.3335   -0.9006   -0.0193 H   0  0  0  0  0  0  0  0  0  0  0  0
   -5.5951    1.3114    0.7835 H   0  0  0  0  0  0  0  0  0  0  0  0
   -3.2109    1.8806    0.8187 H   0  0  0  0  0  0  0  0  0  0  0  0
   -0.3550   -0.7719    0.0599 O   0  0  0  0  0  0  0  0  0  0  0  0
    0.9929   -0.6296    0.0464 C   0  0  0  0  0  0  0  0  0  0  0  0
    1.7543   -1.7864    0.1088 C   0  0  0  0  0  0  0  0  0  0  0  0
    3.1408   -1.6863    0.0986 C   0  0  0  0  0  0  0  0  0  0  0  0
    3.7621   -0.4434    0.0267 C   0  0  0  0  0  0  0  0  0  0  0  0
    3.0088    0.7205   -0.0359 C   0  0  0  0  0  0  0  0  0  0  0  0
    1.5959    0.6337   -0.0256 C   0  0  0  0  0  0  0  0  0  0  0  0
    3.6193    1.9006   -0.1047 O   0  0  0  0  0  0  0  0  0  0  0  0
    2.9078    2.5992   -0.1428 H   0  0  0  0  0  0  0  0  0  0  0  0
    4.8390   -0.3620    0.0186 H   0  0  0  0  0  0  0  0  0  0  0  0
    3.8558   -2.8312    0.1600 O   0  0  0  0  0  0  0  0  0  0  0  0
    4.8005   -2.6320    0.1464 H   0  0  0  0  0  0  0  0  0  0  0  0
    1.2817   -2.7515    0.1660 H   0  0  0  0  0  0  0  0  0  0  0  0
   -1.3031    2.4277   -0.1524 H   0  0  0  0  0  0  0  0  0  0  0  0
  1  2  2  0
  2  3  1  0
  2 22  1  0
  3  4  2  0
  3 29  1  0
  4  5  1  0
  4 16  1  0
  5  6  2  0
  5 10  1  0
  6  7  1  0
  6 15  1  0
  7  8  2  0
  7 14  1  0
  8  9  1  0
  8 13  1  0
  9 10  2  0
  9 12  1  0
 10 11  1  0
 16 17  1  0
 17 18  1  0
 17 22  2  0
 18 19  2  0
 18 28  1  0
 19 20  1  0
 19 26  1  0
 20 21  2  0
 20 25  1  0
 21 22  1  0
 21 23  1  0
 23 24  1  0
 26 27  1  0
M  END
$$$$
