
     RDKit          3D

 29 30  0  0  0  0  0  0  0  0999 V2000
   -0.9055   -1.8830   -0.0001 O   0  0  0  0  0  0  0  0  0  0  0  0
   -1.0093   -0.6749   -0.0001 C   0  0  0  0  0  0  0  0  0  0  0  0
    0.0634    0.1780   -0.0000 N   0  0  0  0  0  0  0  0  0  0  0  0
    1.4035   -0.1350   -0.0000 C   0  0  0  0  0  0  0  0  0  0  0  0
    1.8946   -1.4452   -0.0000 C   0  0  0  0  0  0  0  0  0  0  0  0
    3.2498   -1.6925   -0.0000 C   0  0  0  0  0  0  0  0  0  0  0  0
    4.1465   -0.6303    0.0000 C   0  0  0  0  0  0  0  0  0  0  0  0
    3.6902    0.6846    0.0000 C   0  0  0  0  0  0  0  0  0  0  0  0
    2.3350    0.9226    0.0000 C   0  0  0  0  0  0  0  0  0  0  0  0
    1.7736    2.5624   -0.0000 Cl  0  0  0  0  0  0  0  0  0  0  0  0
    4.4035    1.4946    0.0000 H   0  0  0  0  0  0  0  0  0  0  0  0
    5.5609   -0.8806    0.0000 N   0  0  0  0  0  0  0  0  0  0  0  0
    5.9275   -2.0367    0.0000 O   0  0  0  0  0  0  0  0  0  0  0  0
    6.3033    0.0793    0.0000 O   0  0  0  0  0  0  0  0  0  0  0  0
    3.6297   -2.7023   -0.0000 H   0  0  0  0  0  0  0  0  0  0  0  0
    1.1899   -2.2600   -0.0000 H   0  0  0  0  0  0  0  0  0  0  0  0
   -0.1349    1.1753   -0.0000 H   0  0  0  0  0  0  0  0  0  0  0  0
   -2.3533   -0.0181   -0.0000 C   0  0  0  0  0  0  0  0  0  0  0  0
   -3.4335   -0.9016    0.0000 C   0  0  0  0  0  0  0  0  0  0  0  0
   -4.7371   -0.4483    0.0000 C   0  0  0  0  0  0  0  0  0  0  0  0
   -4.9993    0.9140    0.0000 C   0  0  0  0  0  0  0  0  0  0  0  0
   -3.9412    1.7998    0.0000 C   0  0  0  0  0  0  0  0  0  0  0  0
   -2.6202    1.3601    0.0000 C   0  0  0  0  0  0  0  0  0  0  0  0
   -1.6092    2.2733   -0.0000 O   0  0  0  0  0  0  0  0  0  0  0  0
   -1.9702    3.1693    0.0000 H   0  0  0  0  0  0  0  0  0  0  0  0
   -4.1385    2.8637    0.0000 H   0  0  0  0  0  0  0  0  0  0  0  0
   -6.0149    1.2753    0.0000 H   0  0  0  0  0  0  0  0  0  0  0  0
   -6.0432   -1.5747    0.0000 Cl  0  0  0  0  0  0  0  0  0  0  0  0
   -3.2125   -1.9582   -0.0000 H   0  0  0  0  0  0  0  0  0  0  0  0
  1  2  2  0
  2  3  1  0
  2 18  1  0
  3  4  1  0
  3 17  1  0
  4  5  2  0
  4  9  1  0
  5  6  1  0
  5 16  1  0
  6  7  2  0
  6 15  1  0
  7  8  1  0
  7 12  1  0
  8  9  2  0
  8 11  1  0
  9 10  1  0
 12 13  2  0
 12 14  1  0
 18 19  2  0
 18 23  1  0
 19 20  1  0
 19 29  1  0
 20 21  2  0
 20 28  1  0
 21 22  1  0
 21 27  1  0
 22 23  2  0
 22 26  1  0
 23 24  1  0
 24 25  1  0
M  CHG  2  12   1  14  -1
M  END
$$$$

     RDKit          3D

 29 30  0  0  0  0  0  0  0  0999 V2000
   -1.8423   -2.9474   -0.8041 O   0  0  0  0  0  0  0  0  0  0  0  0
   -1.2409   -1.9490   -0.4859 C   0  0  0  0  0  0  0  0  0  0  0  0
    0.1287   -1.9023   -0.6136 N   0  0  0  0  0  0  0  0  0  0  0  0
    1.0037   -0.8480   -0.5089 C   0  0  0  0  0  0  0  0  0  0  0  0
    0.6411    0.4688   -0.8130 C   0  0  0  0  0  0  0  0  0  0  0  0
    1.5490    1.4979   -0.6979 C   0  0  0  0  0  0  0  0  0  0  0  0
    2.8518    1.2245   -0.2961 C   0  0  0  0  0  0  0  0  0  0  0  0
    3.2560   -0.0800   -0.0297 C   0  0  0  0  0  0  0  0  0  0  0  0
    2.3389   -1.1015   -0.1398 C   0  0  0  0  0  0  0  0  0  0  0  0
    2.8334   -2.7253    0.1906 Cl  0  0  0  0  0  0  0  0  0  0  0  0
    4.2767   -0.2705    0.2650 H   0  0  0  0  0  0  0  0  0  0  0  0
    3.8001    2.2965   -0.1626 N   0  0  0  0  0  0  0  0  0  0  0  0
    3.4044    3.4237   -0.3726 O   0  0  0  0  0  0  0  0  0  0  0  0
    4.9340    2.0093    0.1565 O   0  0  0  0  0  0  0  0  0  0  0  0
    1.2708    2.5151   -0.9259 H   0  0  0  0  0  0  0  0  0  0  0  0
   -0.3615    0.6756   -1.1494 H   0  0  0  0  0  0  0  0  0  0  0  0
    0.5617   -2.8144   -0.7321 H   0  0  0  0  0  0  0  0  0  0  0  0
   -1.9224   -0.7582    0.0977 C   0  0  0  0  0  0  0  0  0  0  0  0
   -3.0816   -0.2909   -0.5083 C   0  0  0  0  0  0  0  0  0  0  0  0
   -3.7790    0.7683    0.0466 C   0  0  0  0  0  0  0  0  0  0  0  0
   -3.3449    1.3508    1.2279 C   0  0  0  0  0  0  0  0  0  0  0  0
   -2.2119    0.8643    1.8523 C   0  0  0  0  0  0  0  0  0  0  0  0
   -1.4887   -0.1883    1.3029 C   0  0  0  0  0  0  0  0  0  0  0  0
   -0.3816   -0.6878    1.9079 O   0  0  0  0  0  0  0  0  0  0  0  0
   -0.2411   -0.2476    2.7555 H   0  0  0  0  0  0  0  0  0  0  0  0
   -1.8828    1.3055    2.7829 H   0  0  0  0  0  0  0  0  0  0  0  0
   -3.8941    2.1712    1.6609 H   0  0  0  0  0  0  0  0  0  0  0  0
   -5.2007    1.3604   -0.7316 Cl  0  0  0  0  0  0  0  0  0  0  0  0
   -3.4244   -0.7632   -1.4153 H   0  0  0  0  0  0  0  0  0  0  0  0
  1  2  2  0
  2  3  1  0
  2 18  1  0
  3  4  1  0
  3 17  1  0
  4  5  2  0
  4  9  1  0
  5  6  1  0
  5 16  1  0
  6  7  2  0
  6 15  1  0
  7  8  1  0
  7 12  1  0
  8  9  2  0
  8 11  1  0
  9 10  1  0
 12 13  2  0
 12 14  1  0
 18 19  2  0
 18 23  1  0
 19 20  1  0
 19 29  1  0
 20 21  2  0
 20 28  1  0
 21 22  1  0
 21 27  1  0
 22 23  2  0
 22 26  1  0
 23 24  1  0
 24 25  1  0
M  CHG  2  12   1  14  -1
M  END
$$$$

     RDKit          3D

 29 30  0  0  0  0  0  0  0  0999 V2000
    0.6077    2.3259    0.7492 O   0  0  0  0  0  0  0  0  0  0  0  0
    0.9337    1.2654    0.2795 C   0  0  0  0  0  0  0  0  0  0  0  0
    0.0535    0.2655   -0.0755 N   0  0  0  0  0  0  0  0  0  0  0  0
   -1.3205    0.2489    0.0215 C   0  0  0  0  0  0  0  0  0  0  0  0
   -2.0662    1.3129    0.5376 C   0  0  0  0  0  0  0  0  0  0  0  0
   -3.4401    1.2377    0.6116 C   0  0  0  0  0  0  0  0  0  0  0  0
   -4.0946    0.0935    0.1698 C   0  0  0  0  0  0  0  0  0  0  0  0
   -3.3791   -0.9822   -0.3480 C   0  0  0  0  0  0  0  0  0  0  0  0
   -2.0074   -0.8989   -0.4184 C   0  0  0  0  0  0  0  0  0  0  0  0
   -1.1105   -2.2395   -1.0618 Cl  0  0  0  0  0  0  0  0  0  0  0  0
   -3.9089   -1.8605   -0.6841 H   0  0  0  0  0  0  0  0  0  0  0  0
   -5.5277    0.0097    0.2436 N   0  0  0  0  0  0  0  0  0  0  0  0
   -6.0535   -1.0080   -0.1556 O   0  0  0  0  0  0  0  0  0  0  0  0
   -6.1233    0.9619    0.7005 O   0  0  0  0  0  0  0  0  0  0  0  0
   -4.0206    2.0559    1.0084 H   0  0  0  0  0  0  0  0  0  0  0  0
   -1.5447    2.1936    0.8741 H   0  0  0  0  0  0  0  0  0  0  0  0
    0.4481   -0.5735   -0.4882 H   0  0  0  0  0  0  0  0  0  0  0  0
    2.3529    0.8624    0.0370 C   0  0  0  0  0  0  0  0  0  0  0  0
    2.8263   -0.3608    0.4961 C   0  0  0  0  0  0  0  0  0  0  0  0
    4.1591   -0.6971    0.3326 C   0  0  0  0  0  0  0  0  0  0  0  0
    5.0337    0.1789   -0.2924 C   0  0  0  0  0  0  0  0  0  0  0  0
    4.5657    1.3920   -0.7574 C   0  0  0  0  0  0  0  0  0  0  0  0
    3.2292    1.7521   -0.6008 C   0  0  0  0  0  0  0  0  0  0  0  0
    2.7366    2.9098   -1.0808 O   0  0  0  0  0  0  0  0  0  0  0  0
    3.4428    3.4529   -1.4531 H   0  0  0  0  0  0  0  0  0  0  0  0
    5.2453    2.0753   -1.2476 H   0  0  0  0  0  0  0  0  0  0  0  0
    6.0714   -0.0875   -0.4136 H   0  0  0  0  0  0  0  0  0  0  0  0
    4.7335   -2.2189    0.9154 Cl  0  0  0  0  0  0  0  0  0  0  0  0
    2.1645   -1.0403    1.0115 H   0  0  0  0  0  0  0  0  0  0  0  0
  1  2  2  0
  2  3  1  0
  2 18  1  0
  3  4  1  0
  3 17  1  0
  4  5  2  0
  4  9  1  0
  5  6  1  0
  5 16  1  0
  6  7  2  0
  6 15  1  0
  7  8  1  0
  7 12  1  0
  8  9  2  0
  8 11  1  0
  9 10  1  0
 12 13  2  0
 12 14  1  0
 18 19  2  0
 18 23  1  0
 19 20  1  0
 19 29  1  0
 20 21  2  0
 20 28  1  0
 21 22  1  0
 21 27  1  0
 22 23  2  0
 22 26  1  0
 23 24  1  0
 24 25  1  0
M  CHG  2  12   1  14  -1
M  END
$$$$

     RDKit          3D

 29 30  0  0  0  0  0  0  0  0999 V2000
   -1.9685   -3.0542   -0.4142 O   0  0  0  0  0  0  0  0  0  0  0  0
   -1.2209   -2.1344   -0.1735 C   0  0  0  0  0  0  0  0  0  0  0  0
    0.1337   -2.2994   -0.3615 N   0  0  0  0  0  0  0  0  0  0  0  0
    1.1837   -1.4017   -0.2912 C   0  0  0  0  0  0  0  0  0  0  0  0
    2.3685   -1.8084    0.3348 C   0  0  0  0  0  0  0  0  0  0  0  0
    3.4457   -0.9615    0.4544 C   0  0  0  0  0  0  0  0  0  0  0  0
    3.3556    0.3242   -0.0690 C   0  0  0  0  0  0  0  0  0  0  0  0
    2.2151    0.7387   -0.7451 C   0  0  0  0  0  0  0  0  0  0  0  0
    1.1428   -0.1231   -0.8725 C   0  0  0  0  0  0  0  0  0  0  0  0
   -0.2034    0.3815   -1.8303 Cl  0  0  0  0  0  0  0  0  0  0  0  0
    2.1860    1.7242   -1.1841 H   0  0  0  0  0  0  0  0  0  0  0  0
    4.4624    1.2333    0.0711 N   0  0  0  0  0  0  0  0  0  0  0  0
    5.4621    0.8173    0.6170 O   0  0  0  0  0  0  0  0  0  0  0  0
    4.3244    2.3585   -0.3575 O   0  0  0  0  0  0  0  0  0  0  0  0
    4.3525   -1.2681    0.9522 H   0  0  0  0  0  0  0  0  0  0  0  0
    2.4156   -2.8033    0.7496 H   0  0  0  0  0  0  0  0  0  0  0  0
    0.3957   -3.2746   -0.4546 H   0  0  0  0  0  0  0  0  0  0  0  0
   -1.7069   -0.8367    0.3680 C   0  0  0  0  0  0  0  0  0  0  0  0
   -2.8836   -0.3219   -0.1663 C   0  0  0  0  0  0  0  0  0  0  0  0
   -3.4085    0.8645    0.3108 C   0  0  0  0  0  0  0  0  0  0  0  0
   -2.7834    1.5393    1.3492 C   0  0  0  0  0  0  0  0  0  0  0  0
   -1.6415    1.0066    1.9144 C   0  0  0  0  0  0  0  0  0  0  0  0
   -1.0924   -0.1811    1.4420 C   0  0  0  0  0  0  0  0  0  0  0  0
    0.0082   -0.7288    2.0230 O   0  0  0  0  0  0  0  0  0  0  0  0
    0.2701   -0.2000    2.7872 H   0  0  0  0  0  0  0  0  0  0  0  0
   -1.1644    1.5174    2.7397 H   0  0  0  0  0  0  0  0  0  0  0  0
   -3.1931    2.4655    1.7187 H   0  0  0  0  0  0  0  0  0  0  0  0
   -4.8506    1.5068   -0.3847 Cl  0  0  0  0  0  0  0  0  0  0  0  0
   -3.3670   -0.8600   -0.9666 H   0  0  0  0  0  0  0  0  0  0  0  0
  1  2  2  0
  2  3  1  0
  2 18  1  0
  3  4  1  0
  3 17  1  0
  4  5  2  0
  4  9  1  0
  5  6  1  0
  5 16  1  0
  6  7  2  0
  6 15  1  0
  7  8  1  0
  7 12  1  0
  8  9  2  0
  8 11  1  0
  9 10  1  0
 12 13  2  0
 12 14  1  0
 18 19  2  0
 18 23  1  0
 19 20  1  0
 19 29  1  0
 20 21  2  0
 20 28  1  0
 21 22  1  0
 21 27  1  0
 22 23  2  0
 22 26  1  0
 23 24  1  0
 24 25  1  0
M  CHG  2  12   1  14  -1
M  END
$$$$

     RDKit          3D

 29 30  0  0  0  0  0  0  0  0999 V2000
   -0.6303   -1.0115   -0.9968 O   0  0  0  0  0  0  0  0  0  0  0  0
   -0.8738   -0.0107   -0.3634 C   0  0  0  0  0  0  0  0  0  0  0  0
    0.1041    0.7902    0.1746 N   0  0  0  0  0  0  0  0  0  0  0  0
    1.4695    0.5509    0.0846 C   0  0  0  0  0  0  0  0  0  0  0  0
    2.3149    1.6039   -0.2785 C   0  0  0  0  0  0  0  0  0  0  0  0
    3.6733    1.4209   -0.4009 C   0  0  0  0  0  0  0  0  0  0  0  0
    4.2084    0.1607   -0.1536 C   0  0  0  0  0  0  0  0  0  0  0  0
    3.3992   -0.8931    0.2492 C   0  0  0  0  0  0  0  0  0  0  0  0
    2.0365   -0.6980    0.3872 C   0  0  0  0  0  0  0  0  0  0  0  0
    1.0797   -1.9796    1.0140 Cl  0  0  0  0  0  0  0  0  0  0  0  0
    3.8438   -1.8510    0.4714 H   0  0  0  0  0  0  0  0  0  0  0  0
    5.6258   -0.0496   -0.2914 N   0  0  0  0  0  0  0  0  0  0  0  0
    6.3049    0.9047   -0.6068 O   0  0  0  0  0  0  0  0  0  0  0  0
    6.0542   -1.1637   -0.0834 O   0  0  0  0  0  0  0  0  0  0  0  0
    4.3281    2.2267   -0.6935 H   0  0  0  0  0  0  0  0  0  0  0  0
    1.8792    2.5712   -0.4787 H   0  0  0  0  0  0  0  0  0  0  0  0
   -0.1689    1.7334    0.4203 H   0  0  0  0  0  0  0  0  0  0  0  0
   -2.2772    0.4380   -0.1090 C   0  0  0  0  0  0  0  0  0  0  0  0
   -3.2558   -0.5218   -0.3619 C   0  0  0  0  0  0  0  0  0  0  0  0
   -4.5961   -0.2471   -0.1739 C   0  0  0  0  0  0  0  0  0  0  0  0
   -4.9943    1.0073    0.2639 C   0  0  0  0  0  0  0  0  0  0  0  0
   -4.0351    1.9705    0.5052 C   0  0  0  0  0  0  0  0  0  0  0  0
   -2.6802    1.7075    0.3292 C   0  0  0  0  0  0  0  0  0  0  0  0
   -1.7646    2.6933    0.5690 O   0  0  0  0  0  0  0  0  0  0  0  0
   -2.2220    3.5027    0.8316 H   0  0  0  0  0  0  0  0  0  0  0  0
   -4.3406    2.9531    0.8397 H   0  0  0  0  0  0  0  0  0  0  0  0
   -6.0391    1.2285    0.4101 H   0  0  0  0  0  0  0  0  0  0  0  0
   -5.7787   -1.4627   -0.4868 Cl  0  0  0  0  0  0  0  0  0  0  0  0
   -2.9296   -1.4891   -0.7126 H   0  0  0  0  0  0  0  0  0  0  0  0
  1  2  2  0
  2  3  1  0
  2 18  1  0
  3  4  1  0
  3 17  1  0
  4  5  2  0
  4  9  1  0
  5  6  1  0
  5 16  1  0
  6  7  2  0
  6 15  1  0
  7  8  1  0
  7 12  1  0
  8  9  2  0
  8 11  1  0
  9 10  1  0
 12 13  2  0
 12 14  1  0
 18 19  2  0
 18 23  1  0
 19 20  1  0
 19 29  1  0
 20 21  2  0
 20 28  1  0
 21 22  1  0
 21 27  1  0
 22 23  2  0
 22 26  1  0
 23 24  1  0
 24 25  1  0
M  CHG  2  12   1  14  -1
M  END
$$$$

     RDKit          3D

 29 30  0  0  0  0  0  0  0  0999 V2000
    2.2108    3.0299    0.0485 O   0  0  0  0  0  0  0  0  0  0  0  0
    1.5661    2.0138    0.1189 C   0  0  0  0  0  0  0  0  0  0  0  0
    0.1917    2.0647    0.0081 N   0  0  0  0  0  0  0  0  0  0  0  0
   -0.7745    1.1048    0.2025 C   0  0  0  0  0  0  0  0  0  0  0  0
   -0.5967   -0.0013    1.0402 C   0  0  0  0  0  0  0  0  0  0  0  0
   -1.5989   -0.9307    1.2096 C   0  0  0  0  0  0  0  0  0  0  0  0
   -2.8126   -0.7625    0.5533 C   0  0  0  0  0  0  0  0  0  0  0  0
   -3.0342    0.3438   -0.2601 C   0  0  0  0  0  0  0  0  0  0  0  0
   -2.0244    1.2653   -0.4278 C   0  0  0  0  0  0  0  0  0  0  0  0
   -2.2969    2.6470   -1.4363 Cl  0  0  0  0  0  0  0  0  0  0  0  0
   -3.9891    0.4614   -0.7493 H   0  0  0  0  0  0  0  0  0  0  0  0
   -3.8623   -1.7307    0.7270 N   0  0  0  0  0  0  0  0  0  0  0  0
   -4.9103   -1.5334    0.1508 O   0  0  0  0  0  0  0  0  0  0  0  0
   -3.6323   -2.6834    1.4406 O   0  0  0  0  0  0  0  0  0  0  0  0
   -1.4632   -1.7852    1.8541 H   0  0  0  0  0  0  0  0  0  0  0  0
    0.3329   -0.1156    1.5712 H   0  0  0  0  0  0  0  0  0  0  0  0
   -0.1575    2.9664   -0.3075 H   0  0  0  0  0  0  0  0  0  0  0  0
    2.1807    0.6568    0.2070 C   0  0  0  0  0  0  0  0  0  0  0  0
    1.9366   -0.2717   -0.7964 C   0  0  0  0  0  0  0  0  0  0  0  0
    2.5877   -1.4932   -0.7816 C   0  0  0  0  0  0  0  0  0  0  0  0
    3.4927   -1.7961    0.2246 C   0  0  0  0  0  0  0  0  0  0  0  0
    3.7375   -0.8735    1.2234 C   0  0  0  0  0  0  0  0  0  0  0  0
    3.0905    0.3592    1.2300 C   0  0  0  0  0  0  0  0  0  0  0  0
    3.2646    1.2639    2.2161 O   0  0  0  0  0  0  0  0  0  0  0  0
    3.9638    0.9807    2.8185 H   0  0  0  0  0  0  0  0  0  0  0  0
    4.4428   -1.1081    2.0085 H   0  0  0  0  0  0  0  0  0  0  0  0
    4.0010   -2.7469    0.2259 H   0  0  0  0  0  0  0  0  0  0  0  0
    2.2672   -2.6439   -2.0283 Cl  0  0  0  0  0  0  0  0  0  0  0  0
    1.2490   -0.0358   -1.5934 H   0  0  0  0  0  0  0  0  0  0  0  0
  1  2  2  0
  2  3  1  0
  2 18  1  0
  3  4  1  0
  3 17  1  0
  4  5  2  0
  4  9  1  0
  5  6  1  0
  5 16  1  0
  6  7  2  0
  6 15  1  0
  7  8  1  0
  7 12  1  0
  8  9  2  0
  8 11  1  0
  9 10  1  0
 12 13  2  0
 12 14  1  0
 18 19  2  0
 18 23  1  0
 19 20  1  0
 19 29  1  0
 20 21  2  0
 20 28  1  0
 21 22  1  0
 21 27  1  0
 22 23  2  0
 22 26  1  0
 23 24  1  0
 24 25  1  0
M  CHG  2  12   1  14  -1
M  END
$$$$
