
     RDKit          3D

 30 31  0  0  0  0  0  0  0  0999 V2000
    3.5403    0.8568   -1.6037 C   0  0  0  0  0  0  0  0  0  0  0  0
    4.0504    0.1055   -0.3806 C   0  0  0  0  0  0  0  0  0  0  0  0
    5.0295    0.4915   -0.0925 H   0  0  0  0  0  0  0  0  0  0  0  0
    3.1099    0.2651    0.8176 C   0  0  0  0  0  0  0  0  0  0  0  0
    1.7793   -0.2142    0.5500 N   0  0  0  0  0  0  0  0  0  0  0  0
    0.7066    0.5987    0.4289 C   0  0  0  0  0  0  0  0  0  0  0  0
    0.7708    1.8164    0.5425 O   0  0  0  0  0  0  0  0  0  0  0  0
   -0.4683   -0.2700    0.1611 C   0  0  0  0  0  0  0  0  0  0  0  0
   -1.8276   -0.0156   -0.0558 C   0  0  0  0  0  0  0  0  0  0  0  0
   -2.6538   -1.1189   -0.2760 C   0  0  0  0  0  0  0  0  0  0  0  0
   -2.1815   -2.4177   -0.2858 C   0  0  0  0  0  0  0  0  0  0  0  0
   -0.8351   -2.6690   -0.0731 C   0  0  0  0  0  0  0  0  0  0  0  0
   -0.0033   -1.5916    0.1464 C   0  0  0  0  0  0  0  0  0  0  0  0
    1.4715   -1.6102    0.3933 C   0  0  0  0  0  0  0  0  0  0  0  0
    2.0180   -2.0495   -0.4496 H   0  0  0  0  0  0  0  0  0  0  0  0
    1.7332   -2.1740    1.2975 H   0  0  0  0  0  0  0  0  0  0  0  0
   -0.4454   -3.6759   -0.0780 H   0  0  0  0  0  0  0  0  0  0  0  0
   -2.8631   -3.2363   -0.4603 H   0  0  0  0  0  0  0  0  0  0  0  0
   -3.7012   -0.9147   -0.4431 H   0  0  0  0  0  0  0  0  0  0  0  0
   -2.5464    1.3101   -0.0896 C   0  0  0  0  0  0  0  0  0  0  0  0
   -3.7455    1.3499   -0.3085 O   0  0  0  0  0  0  0  0  0  0  0  0
   -1.8168    2.4102    0.1286 N   0  0  0  0  0  0  0  0  0  0  0  0
   -2.2979    3.2943    0.1059 H   0  0  0  0  0  0  0  0  0  0  0  0
   -0.8139    2.3847    0.3094 H   0  0  0  0  0  0  0  0  0  0  0  0
    3.0100    1.3245    1.0680 H   0  0  0  0  0  0  0  0  0  0  0  0
    3.5147   -0.2706    1.6841 H   0  0  0  0  0  0  0  0  0  0  0  0
    4.1695   -0.9542   -0.6181 H   0  0  0  0  0  0  0  0  0  0  0  0
    3.4097    1.9109   -1.3721 H   0  0  0  0  0  0  0  0  0  0  0  0
    4.2442    0.7662   -2.4274 H   0  0  0  0  0  0  0  0  0  0  0  0
    2.5802    0.4612   -1.9285 H   0  0  0  0  0  0  0  0  0  0  0  0
  1  2  1  0
  1 28  1  0
  1 29  1  0
  1 30  1  0
  2  3  1  0
  2  4  1  0
  2 27  1  0
  4  5  1  0
  4 25  1  0
  4 26  1  0
  5  6  1  0
  5 14  1  0
  6  7  2  0
  6  8  1  0
  8  9  2  0
  8 13  1  0
  9 10  1  0
  9 20  1  0
 10 11  2  0
 10 19  1  0
 11 12  1  0
 11 18  1  0
 12 13  2  0
 12 17  1  0
 13 14  1  0
 14 15  1  0
 14 16  1  0
 20 21  2  0
 20 22  1  0
 22 23  1  0
 22 24  1  0
M  END
$$$$

     RDKit          3D

 30 31  0  0  0  0  0  0  0  0999 V2000
    5.2590    0.6406    0.5016 C   0  0  0  0  0  0  0  0  0  0  0  0
    3.8601    0.0775    0.7124 C   0  0  0  0  0  0  0  0  0  0  0  0
    3.3583    0.6247    1.5126 H   0  0  0  0  0  0  0  0  0  0  0  0
    3.0237    0.1961   -0.5643 C   0  0  0  0  0  0  0  0  0  0  0  0
    1.6680   -0.2527   -0.3817 N   0  0  0  0  0  0  0  0  0  0  0  0
    0.6150    0.5877   -0.2738 C   0  0  0  0  0  0  0  0  0  0  0  0
    0.7223    1.8062   -0.3306 O   0  0  0  0  0  0  0  0  0  0  0  0
   -0.5962   -0.2539   -0.0984 C   0  0  0  0  0  0  0  0  0  0  0  0
   -1.9569    0.0339    0.0597 C   0  0  0  0  0  0  0  0  0  0  0  0
   -2.8246   -1.0509    0.1959 C   0  0  0  0  0  0  0  0  0  0  0  0
   -2.3909   -2.3630    0.1796 C   0  0  0  0  0  0  0  0  0  0  0  0
   -1.0433   -2.6474    0.0247 C   0  0  0  0  0  0  0  0  0  0  0  0
   -0.1706   -1.5888   -0.1115 C   0  0  0  0  0  0  0  0  0  0  0  0
    1.3135   -1.6435   -0.2872 C   0  0  0  0  0  0  0  0  0  0  0  0
    1.6033   -2.1853   -1.1962 H   0  0  0  0  0  0  0  0  0  0  0  0
    1.8059   -2.1248    0.5662 H   0  0  0  0  0  0  0  0  0  0  0  0
   -0.6835   -3.6653    0.0102 H   0  0  0  0  0  0  0  0  0  0  0  0
   -3.1038   -3.1662    0.2883 H   0  0  0  0  0  0  0  0  0  0  0  0
   -3.8730   -0.8209    0.3178 H   0  0  0  0  0  0  0  0  0  0  0  0
   -2.6382    1.3789    0.1073 C   0  0  0  0  0  0  0  0  0  0  0  0
   -3.8453    1.4475    0.2668 O   0  0  0  0  0  0  0  0  0  0  0  0
   -1.8672    2.4634   -0.0329 N   0  0  0  0  0  0  0  0  0  0  0  0
   -2.3231    3.3604    0.0003 H   0  0  0  0  0  0  0  0  0  0  0  0
   -0.8571    2.4143   -0.1605 H   0  0  0  0  0  0  0  0  0  0  0  0
    3.4852   -0.3837   -1.3712 H   0  0  0  0  0  0  0  0  0  0  0  0
    2.9677    1.2452   -0.8672 H   0  0  0  0  0  0  0  0  0  0  0  0
    3.9303   -0.9711    1.0107 H   0  0  0  0  0  0  0  0  0  0  0  0
    5.7724    0.1028   -0.2925 H   0  0  0  0  0  0  0  0  0  0  0  0
    5.2082    1.6914    0.2276 H   0  0  0  0  0  0  0  0  0  0  0  0
    5.8455    0.5506    1.4123 H   0  0  0  0  0  0  0  0  0  0  0  0
  1  2  1  0
  1 28  1  0
  1 29  1  0
  1 30  1  0
  2  3  1  0
  2  4  1  0
  2 27  1  0
  4  5  1  0
  4 25  1  0
  4 26  1  0
  5  6  1  0
  5 14  1  0
  6  7  2  0
  6  8  1  0
  8  9  2  0
  8 13  1  0
  9 10  1  0
  9 20  1  0
 10 11  2  0
 10 19  1  0
 11 12  1  0
 11 18  1  0
 12 13  2  0
 12 17  1  0
 13 14  1  0
 14 15  1  0
 14 16  1  0
 20 21  2  0
 20 22  1  0
 22 23  1  0
 22 24  1  0
M  END
$$$$

     RDKit          3D

 30 31  0  0  0  0  0  0  0  0999 V2000
   -3.9503   -0.0981    1.5343 C   0  0  0  0  0  0  0  0  0  0  0  0
   -3.7411    0.9411    0.4402 C   0  0  0  0  0  0  0  0  0  0  0  0
   -3.1076    1.7468    0.8130 H   0  0  0  0  0  0  0  0  0  0  0  0
   -3.0900    0.3584   -0.8180 C   0  0  0  0  0  0  0  0  0  0  0  0
   -1.7676   -0.1620   -0.5662 N   0  0  0  0  0  0  0  0  0  0  0  0
   -0.6883    0.6336   -0.4066 C   0  0  0  0  0  0  0  0  0  0  0  0
   -0.7439    1.8560   -0.4678 O   0  0  0  0  0  0  0  0  0  0  0  0
    0.4773   -0.2563   -0.1706 C   0  0  0  0  0  0  0  0  0  0  0  0
    1.8367   -0.0242    0.0687 C   0  0  0  0  0  0  0  0  0  0  0  0
    2.6512   -1.1433    0.2477 C   0  0  0  0  0  0  0  0  0  0  0  0
    2.1673   -2.4369    0.1961 C   0  0  0  0  0  0  0  0  0  0  0  0
    0.8210   -2.6664   -0.0403 C   0  0  0  0  0  0  0  0  0  0  0  0
    0.0003   -1.5729   -0.2188 C   0  0  0  0  0  0  0  0  0  0  0  0
   -1.4717   -1.5674   -0.4834 C   0  0  0  0  0  0  0  0  0  0  0  0
   -2.0364   -2.0514    0.3218 H   0  0  0  0  0  0  0  0  0  0  0  0
   -1.7194   -2.0767   -1.4235 H   0  0  0  0  0  0  0  0  0  0  0  0
    0.4227   -3.6690   -0.0838 H   0  0  0  0  0  0  0  0  0  0  0  0
    2.8399   -3.2686    0.3408 H   0  0  0  0  0  0  0  0  0  0  0  0
    3.6988   -0.9563    0.4335 H   0  0  0  0  0  0  0  0  0  0  0  0
    2.5651    1.2929    0.1667 C   0  0  0  0  0  0  0  0  0  0  0  0
    3.7600    1.3144    0.4098 O   0  0  0  0  0  0  0  0  0  0  0  0
    1.8489    2.4062   -0.0278 N   0  0  0  0  0  0  0  0  0  0  0  0
    2.3357    3.2848    0.0403 H   0  0  0  0  0  0  0  0  0  0  0  0
    0.8469    2.3967   -0.2171 H   0  0  0  0  0  0  0  0  0  0  0  0
   -3.0020    1.1528   -1.5663 H   0  0  0  0  0  0  0  0  0  0  0  0
   -3.7003   -0.4510   -1.2254 H   0  0  0  0  0  0  0  0  0  0  0  0
   -4.7019    1.3720    0.1534 H   0  0  0  0  0  0  0  0  0  0  0  0
   -2.9966   -0.4715    1.9008 H   0  0  0  0  0  0  0  0  0  0  0  0
   -4.4808    0.3442    2.3738 H   0  0  0  0  0  0  0  0  0  0  0  0
   -4.5380   -0.9363    1.1634 H   0  0  0  0  0  0  0  0  0  0  0  0
  1  2  1  0
  1 28  1  0
  1 29  1  0
  1 30  1  0
  2  3  1  0
  2  4  1  0
  2 27  1  0
  4  5  1  0
  4 25  1  0
  4 26  1  0
  5  6  1  0
  5 14  1  0
  6  7  2  0
  6  8  1  0
  8  9  2  0
  8 13  1  0
  9 10  1  0
  9 20  1  0
 10 11  2  0
 10 19  1  0
 11 12  1  0
 11 18  1  0
 12 13  2  0
 12 17  1  0
 13 14  1  0
 14 15  1  0
 14 16  1  0
 20 21  2  0
 20 22  1  0
 22 23  1  0
 22 24  1  0
M  END
$$$$

     RDKit          3D

 30 31  0  0  0  0  0  0  0  0999 V2000
    4.8637    0.4307   -0.5559 C   0  0  0  0  0  0  0  0  0  0  0  0
    3.9169   -0.7618   -0.6338 C   0  0  0  0  0  0  0  0  0  0  0  0
    4.5137   -1.6745   -0.6642 H   0  0  0  0  0  0  0  0  0  0  0  0
    2.9524   -0.8572    0.5570 C   0  0  0  0  0  0  0  0  0  0  0  0
    1.7019   -0.1733    0.3456 N   0  0  0  0  0  0  0  0  0  0  0  0
    0.5246   -0.8281    0.2269 C   0  0  0  0  0  0  0  0  0  0  0  0
    0.4333   -2.0494    0.2444 O   0  0  0  0  0  0  0  0  0  0  0  0
   -0.5374    0.2010    0.0965 C   0  0  0  0  0  0  0  0  0  0  0  0
   -1.9278    0.1404   -0.0542 C   0  0  0  0  0  0  0  0  0  0  0  0
   -2.6120    1.3543   -0.1335 C   0  0  0  0  0  0  0  0  0  0  0  0
   -1.9743    2.5788   -0.0692 C   0  0  0  0  0  0  0  0  0  0  0  0
   -0.5975    2.6382    0.0786 C   0  0  0  0  0  0  0  0  0  0  0  0
    0.0955    1.4490    0.1602 C   0  0  0  0  0  0  0  0  0  0  0  0
    1.5710    1.2588    0.3124 C   0  0  0  0  0  0  0  0  0  0  0  0
    1.9579    1.7118    1.2334 H   0  0  0  0  0  0  0  0  0  0  0  0
    2.1151    1.6901   -0.5359 H   0  0  0  0  0  0  0  0  0  0  0  0
   -0.0798    3.5843    0.1300 H   0  0  0  0  0  0  0  0  0  0  0  0
   -2.5505    3.4891   -0.1349 H   0  0  0  0  0  0  0  0  0  0  0  0
   -3.6844    1.2998   -0.2508 H   0  0  0  0  0  0  0  0  0  0  0  0
   -2.8158   -1.0755   -0.1476 C   0  0  0  0  0  0  0  0  0  0  0  0
   -4.0184   -0.9438   -0.3015 O   0  0  0  0  0  0  0  0  0  0  0  0
   -2.2286   -2.2739   -0.0512 N   0  0  0  0  0  0  0  0  0  0  0  0
   -2.8225   -3.0844   -0.1143 H   0  0  0  0  0  0  0  0  0  0  0  0
   -1.2234   -2.3914    0.0691 H   0  0  0  0  0  0  0  0  0  0  0  0
    3.4316   -0.4609    1.4592 H   0  0  0  0  0  0  0  0  0  0  0  0
    2.6845   -1.9026    0.7307 H   0  0  0  0  0  0  0  0  0  0  0  0
    3.3344   -0.7209   -1.5561 H   0  0  0  0  0  0  0  0  0  0  0  0
    5.5409    0.4257   -1.4068 H   0  0  0  0  0  0  0  0  0  0  0  0
    4.3262    1.3752   -0.5582 H   0  0  0  0  0  0  0  0  0  0  0  0
    5.4604    0.3803    0.3525 H   0  0  0  0  0  0  0  0  0  0  0  0
  1  2  1  0
  1 28  1  0
  1 29  1  0
  1 30  1  0
  2  3  1  0
  2  4  1  0
  2 27  1  0
  4  5  1  0
  4 25  1  0
  4 26  1  0
  5  6  1  0
  5 14  1  0
  6  7  2  0
  6  8  1  0
  8  9  2  0
  8 13  1  0
  9 10  1  0
  9 20  1  0
 10 11  2  0
 10 19  1  0
 11 12  1  0
 11 18  1  0
 12 13  2  0
 12 17  1  0
 13 14  1  0
 14 15  1  0
 14 16  1  0
 20 21  2  0
 20 22  1  0
 22 23  1  0
 22 24  1  0
M  END
$$$$

     RDKit          3D

 30 31  0  0  0  0  0  0  0  0999 V2000
   -5.2110   -0.7185   -0.0090 C   0  0  0  0  0  0  0  0  0  0  0  0
   -3.6892   -0.7933   -0.0073 C   0  0  0  0  0  0  0  0  0  0  0  0
   -3.3441   -1.3263   -0.8927 H   0  0  0  0  0  0  0  0  0  0  0  0
   -3.0954    0.6104    0.0101 C   0  0  0  0  0  0  0  0  0  0  0  0
   -1.6483    0.6803    0.0047 N   0  0  0  0  0  0  0  0  0  0  0  0
   -0.7395   -0.3201    0.0054 C   0  0  0  0  0  0  0  0  0  0  0  0
   -1.0111   -1.5131    0.0093 O   0  0  0  0  0  0  0  0  0  0  0  0
    0.6087    0.3167    0.0008 C   0  0  0  0  0  0  0  0  0  0  0  0
    1.9149   -0.1891   -0.0010 C   0  0  0  0  0  0  0  0  0  0  0  0
    2.9558    0.7415   -0.0038 C   0  0  0  0  0  0  0  0  0  0  0  0
    2.7433    2.1068   -0.0051 C   0  0  0  0  0  0  0  0  0  0  0  0
    1.4509    2.6065   -0.0035 C   0  0  0  0  0  0  0  0  0  0  0  0
    0.4105    1.7020   -0.0005 C   0  0  0  0  0  0  0  0  0  0  0  0
   -1.0533    1.9936    0.0021 C   0  0  0  0  0  0  0  0  0  0  0  0
   -1.3623    2.5612   -0.8849 H   0  0  0  0  0  0  0  0  0  0  0  0
   -1.3589    2.5634    0.8888 H   0  0  0  0  0  0  0  0  0  0  0  0
    1.2593    3.6690   -0.0046 H   0  0  0  0  0  0  0  0  0  0  0  0
    3.5851    2.7824   -0.0075 H   0  0  0  0  0  0  0  0  0  0  0  0
    3.9600    0.3434   -0.0047 H   0  0  0  0  0  0  0  0  0  0  0  0
    2.3820   -1.6244   -0.0001 C   0  0  0  0  0  0  0  0  0  0  0  0
    3.5750   -1.8781    0.0059 O   0  0  0  0  0  0  0  0  0  0  0  0
    1.4435   -2.5772   -0.0089 N   0  0  0  0  0  0  0  0  0  0  0  0
    1.7573   -3.5338   -0.0062 H   0  0  0  0  0  0  0  0  0  0  0  0
    0.4455   -2.3682   -0.0049 H   0  0  0  0  0  0  0  0  0  0  0  0
   -3.4524    1.1403    0.9048 H   0  0  0  0  0  0  0  0  0  0  0  0
   -3.4582    1.1639   -0.8676 H   0  0  0  0  0  0  0  0  0  0  0  0
   -3.3470   -1.3473    0.8661 H   0  0  0  0  0  0  0  0  0  0  0  0
   -5.5703   -0.1859   -0.8872 H   0  0  0  0  0  0  0  0  0  0  0  0
   -5.6347   -1.7188   -0.0183 H   0  0  0  0  0  0  0  0  0  0  0  0
   -5.5728   -0.2012    0.8773 H   0  0  0  0  0  0  0  0  0  0  0  0
  1  2  1  0
  1 28  1  0
  1 29  1  0
  1 30  1  0
  2  3  1  0
  2  4  1  0
  2 27  1  0
  4  5  1  0
  4 25  1  0
  4 26  1  0
  5  6  1  0
  5 14  1  0
  6  7  2  0
  6  8  1  0
  8  9  2  0
  8 13  1  0
  9 10  1  0
  9 20  1  0
 10 11  2  0
 10 19  1  0
 11 12  1  0
 11 18  1  0
 12 13  2  0
 12 17  1  0
 13 14  1  0
 14 15  1  0
 14 16  1  0
 20 21  2  0
 20 22  1  0
 22 23  1  0
 22 24  1  0
M  END
$$$$
