
     RDKit          3D

 27 29  0  0  0  0  0  0  0  0999 V2000
   -3.1716   -2.2524    0.0665 O   0  0  0  0  0  0  0  0  0  0  0  0
   -2.9418   -1.0623   -0.0098 C   0  0  0  0  0  0  0  0  0  0  0  0
   -3.9525   -0.1402   -0.0531 N   0  0  0  0  0  0  0  0  0  0  0  0
   -4.8809   -0.5286   -0.1305 H   0  0  0  0  0  0  0  0  0  0  0  0
   -3.7822    1.2490   -0.4224 C   0  0  0  0  0  0  0  0  0  0  0  0
   -4.6995    1.7867   -0.1740 H   0  0  0  0  0  0  0  0  0  0  0  0
   -2.5875    1.8696    0.3122 C   0  0  0  0  0  0  0  0  0  0  0  0
   -1.4538    0.9210    0.1601 C   0  0  0  0  0  0  0  0  0  0  0  0
   -1.6141   -0.4433    0.0042 C   0  0  0  0  0  0  0  0  0  0  0  0
   -0.3271   -1.0103   -0.0722 C   0  0  0  0  0  0  0  0  0  0  0  0
    0.5836    0.0229    0.0328 C   0  0  0  0  0  0  0  0  0  0  0  0
   -0.1333    1.1917    0.1739 N   0  0  0  0  0  0  0  0  0  0  0  0
    0.2743    2.1033    0.3027 H   0  0  0  0  0  0  0  0  0  0  0  0
    2.0281   -0.0080    0.0014 C   0  0  0  0  0  0  0  0  0  0  0  0
    2.8040    1.1526   -0.0948 C   0  0  0  0  0  0  0  0  0  0  0  0
    4.1823    1.0404   -0.1190 C   0  0  0  0  0  0  0  0  0  0  0  0
    4.8287   -0.1111   -0.0579 N   0  0  0  0  0  0  0  0  0  0  0  0
    4.1012   -1.2140    0.0299 C   0  0  0  0  0  0  0  0  0  0  0  0
    2.7200   -1.2230    0.0642 C   0  0  0  0  0  0  0  0  0  0  0  0
    2.1821   -2.1529    0.1456 H   0  0  0  0  0  0  0  0  0  0  0  0
    4.6627   -2.1379    0.0775 H   0  0  0  0  0  0  0  0  0  0  0  0
    4.8066    1.9220   -0.1931 H   0  0  0  0  0  0  0  0  0  0  0  0
    2.3525    2.1314   -0.1636 H   0  0  0  0  0  0  0  0  0  0  0  0
   -0.1187   -2.0516   -0.2057 H   0  0  0  0  0  0  0  0  0  0  0  0
   -2.3590    2.8520   -0.1047 H   0  0  0  0  0  0  0  0  0  0  0  0
   -2.8269    1.9946    1.3736 H   0  0  0  0  0  0  0  0  0  0  0  0
   -3.6148    1.3362   -1.5072 H   0  0  0  0  0  0  0  0  0  0  0  0
  1  2  2  0
  2  3  1  0
  2  9  1  0
  3  4  1  0
  3  5  1  0
  5  6  1  0
  5  7  1  0
  5 27  1  0
  7  8  1  0
  7 25  1  0
  7 26  1  0
  8  9  2  0
  8 12  1  0
  9 10  1  0
 10 11  2  0
 10 24  1  0
 11 12  1  0
 11 14  1  0
 12 13  1  0
 14 15  2  0
 14 19  1  0
 15 16  1  0
 15 23  1  0
 16 17  2  0
 16 22  1  0
 17 18  1  0
 18 19  2  0
 18 21  1  0
 19 20  1  0
M  END
$$$$
