
     RDKit          3D

 24 23  0  0  0  0  0  0  0  0999 V2000
    2.5096    0.5919    1.2569 C   0  0  0  0  0  0  0  0  0  0  0  0
    1.9618    0.3629   -0.0635 N   0  0  0  0  0  0  0  0  0  0  0  0
    1.4579   -0.8752   -0.3677 C   0  0  0  0  0  0  0  0  0  0  0  0
    0.9557   -1.2467   -1.4944 N   0  0  0  0  0  0  0  0  0  0  0  0
    0.9943   -0.5617   -2.2381 H   0  0  0  0  0  0  0  0  0  0  0  0
    1.6096   -1.8407    0.5969 N   0  0  0  0  0  0  0  0  0  0  0  0
    1.3177   -1.5609    1.5224 H   0  0  0  0  0  0  0  0  0  0  0  0
    1.1968   -2.7157    0.3064 H   0  0  0  0  0  0  0  0  0  0  0  0
    1.4762    1.5297   -0.7621 C   0  0  0  0  0  0  0  0  0  0  0  0
    2.1898    2.3430   -0.6080 H   0  0  0  0  0  0  0  0  0  0  0  0
    1.4231    1.3235   -1.8342 H   0  0  0  0  0  0  0  0  0  0  0  0
    0.0898    1.9889   -0.2814 C   0  0  0  0  0  0  0  0  0  0  0  0
    0.0741    2.0315    0.8109 H   0  0  0  0  0  0  0  0  0  0  0  0
   -0.1363    2.9769   -0.6925 H   0  0  0  0  0  0  0  0  0  0  0  0
   -0.9259    1.1213   -0.7356 O   0  0  0  0  0  0  0  0  0  0  0  0
   -1.4268   -0.0880    0.2288 P   0  0  2  0  0  0  0  0  0  0  0  0
   -0.6485   -0.1947    1.4637 O   0  0  0  0  0  0  0  0  0  0  0  0
   -1.5169   -1.3195   -0.7435 O   0  0  0  0  0  0  0  0  0  0  0  0
   -0.6068   -1.5008   -1.1454 H   0  0  0  0  0  0  0  0  0  0  0  0
   -2.9546    0.2400    0.4926 O   0  0  0  0  0  0  0  0  0  0  0  0
   -3.4757    0.1444   -0.3040 H   0  0  0  0  0  0  0  0  0  0  0  0
    3.2045   -0.2120    1.4944 H   0  0  0  0  0  0  0  0  0  0  0  0
    3.0529    1.5358    1.2503 H   0  0  0  0  0  0  0  0  0  0  0  0
    1.7305    0.6349    2.0246 H   0  0  0  0  0  0  0  0  0  0  0  0
  1  2  1  0
  1 22  1  0
  1 23  1  0
  1 24  1  0
  2  3  1  0
  2  9  1  0
  3  4  2  0
  3  6  1  0
  4  5  1  0
  6  7  1  0
  6  8  1  0
  9 10  1  0
  9 11  1  0
  9 12  1  0
 12 13  1  0
 12 14  1  0
 12 15  1  0
 16 15  1  6
 16 17  2  0
 16 18  1  0
 16 20  1  0
 18 19  1  0
 20 21  1  0
M  END
$$$$

     RDKit          3D

 24 23  0  0  0  0  0  0  0  0999 V2000
   -2.4843   -0.5834    1.2874 C   0  0  0  0  0  0  0  0  0  0  0  0
   -1.9594   -0.3686   -0.0445 N   0  0  0  0  0  0  0  0  0  0  0  0
   -1.4556    0.8666   -0.3681 C   0  0  0  0  0  0  0  0  0  0  0  0
   -0.9671    1.2295   -1.5015 N   0  0  0  0  0  0  0  0  0  0  0  0
   -1.0088    0.5395   -2.2404 H   0  0  0  0  0  0  0  0  0  0  0  0
   -1.5944    1.8396    0.5931 N   0  0  0  0  0  0  0  0  0  0  0  0
   -1.2764    1.5657    1.5119 H   0  0  0  0  0  0  0  0  0  0  0  0
   -1.1883    2.7125    0.2865 H   0  0  0  0  0  0  0  0  0  0  0  0
   -1.4867   -1.5428   -0.7393 C   0  0  0  0  0  0  0  0  0  0  0  0
   -2.1915   -2.3578   -0.5567 H   0  0  0  0  0  0  0  0  0  0  0  0
   -1.4602   -1.3498   -1.8148 H   0  0  0  0  0  0  0  0  0  0  0  0
   -0.0848   -1.9834   -0.2869 C   0  0  0  0  0  0  0  0  0  0  0  0
   -0.0479   -2.0330    0.8046 H   0  0  0  0  0  0  0  0  0  0  0  0
    0.1543   -2.9631   -0.7096 H   0  0  0  0  0  0  0  0  0  0  0  0
    0.8972   -1.0845   -0.7601 O   0  0  0  0  0  0  0  0  0  0  0  0
    1.4197    0.0881    0.1992 P   0  0  2  0  0  0  0  0  0  0  0  0
    0.6765    0.2202    1.4640 O   0  0  0  0  0  0  0  0  0  0  0  0
    1.5226    1.3469   -0.7297 O   0  0  0  0  0  0  0  0  0  0  0  0
    0.6327    1.5188   -1.1612 H   0  0  0  0  0  0  0  0  0  0  0  0
    2.9438   -0.3185    0.4159 O   0  0  0  0  0  0  0  0  0  0  0  0
    3.2751    0.0920    1.2123 H   0  0  0  0  0  0  0  0  0  0  0  0
   -3.1720    0.2251    1.5297 H   0  0  0  0  0  0  0  0  0  0  0  0
   -3.0308   -1.5255    1.2996 H   0  0  0  0  0  0  0  0  0  0  0  0
   -1.6919   -0.6216    2.0417 H   0  0  0  0  0  0  0  0  0  0  0  0
  1  2  1  0
  1 22  1  0
  1 23  1  0
  1 24  1  0
  2  3  1  0
  2  9  1  0
  3  4  2  0
  3  6  1  0
  4  5  1  0
  6  7  1  0
  6  8  1  0
  9 10  1  0
  9 11  1  0
  9 12  1  0
 12 13  1  0
 12 14  1  0
 12 15  1  0
 16 15  1  6
 16 17  2  0
 16 18  1  0
 16 20  1  0
 18 19  1  0
 20 21  1  0
M  END
$$$$

     RDKit          3D

 24 23  0  0  0  0  0  0  0  0999 V2000
   -2.1387   -0.6179   -1.5788 C   0  0  0  0  0  0  0  0  0  0  0  0
   -1.9784   -0.3212   -0.1668 N   0  0  0  0  0  0  0  0  0  0  0  0
   -1.4896    0.9156    0.1799 C   0  0  0  0  0  0  0  0  0  0  0  0
   -1.1466    1.8606   -0.6203 N   0  0  0  0  0  0  0  0  0  0  0  0
   -1.2556    1.6600   -1.6049 H   0  0  0  0  0  0  0  0  0  0  0  0
   -1.4655    1.2240    1.5235 N   0  0  0  0  0  0  0  0  0  0  0  0
   -1.1031    0.5279    2.1537 H   0  0  0  0  0  0  0  0  0  0  0  0
   -1.0676    2.1392    1.6766 H   0  0  0  0  0  0  0  0  0  0  0  0
   -1.6906   -1.4465    0.6914 C   0  0  0  0  0  0  0  0  0  0  0  0
   -1.9960   -1.2115    1.7133 H   0  0  0  0  0  0  0  0  0  0  0  0
   -2.2769   -2.3045    0.3550 H   0  0  0  0  0  0  0  0  0  0  0  0
   -0.1988   -1.8313    0.6509 C   0  0  0  0  0  0  0  0  0  0  0  0
    0.0027   -2.6304    1.3703 H   0  0  0  0  0  0  0  0  0  0  0  0
    0.0634   -2.1692   -0.3552 H   0  0  0  0  0  0  0  0  0  0  0  0
    0.6206   -0.7303    0.9924 O   0  0  0  0  0  0  0  0  0  0  0  0
    1.4576    0.0090   -0.2016 P   0  0  2  0  0  0  0  0  0  0  0  0
    1.0596   -0.4472   -1.5291 O   0  0  0  0  0  0  0  0  0  0  0  0
    2.9671   -0.3095    0.1635 O   0  0  0  0  0  0  0  0  0  0  0  0
    3.2518    0.1681    0.9418 H   0  0  0  0  0  0  0  0  0  0  0  0
    1.3529    1.5403    0.1462 O   0  0  0  0  0  0  0  0  0  0  0  0
    0.4844    1.9006   -0.1988 H   0  0  0  0  0  0  0  0  0  0  0  0
   -1.1808   -0.6939   -2.1017 H   0  0  0  0  0  0  0  0  0  0  0  0
   -2.6733   -1.5609   -1.6729 H   0  0  0  0  0  0  0  0  0  0  0  0
   -2.7433    0.1637   -2.0395 H   0  0  0  0  0  0  0  0  0  0  0  0
  1  2  1  0
  1 22  1  0
  1 23  1  0
  1 24  1  0
  2  3  1  0
  2  9  1  0
  3  4  2  0
  3  6  1  0
  4  5  1  0
  6  7  1  0
  6  8  1  0
  9 10  1  0
  9 11  1  0
  9 12  1  0
 12 13  1  0
 12 14  1  0
 12 15  1  0
 16 15  1  1
 16 17  2  0
 16 18  1  0
 16 20  1  0
 18 19  1  0
 20 21  1  0
M  END
$$$$

     RDKit          3D

 24 23  0  0  0  0  0  0  0  0999 V2000
   -2.1065   -0.7507   -1.5627 C   0  0  0  0  0  0  0  0  0  0  0  0
   -2.0304   -0.3507   -0.1680 N   0  0  0  0  0  0  0  0  0  0  0  0
   -1.5587    0.9212    0.0993 C   0  0  0  0  0  0  0  0  0  0  0  0
   -1.0921    1.7705   -0.7385 N   0  0  0  0  0  0  0  0  0  0  0  0
   -0.9831    1.4255   -1.6834 H   0  0  0  0  0  0  0  0  0  0  0  0
   -1.6171    1.3158    1.4154 N   0  0  0  0  0  0  0  0  0  0  0  0
   -2.3759    0.9623    1.9734 H   0  0  0  0  0  0  0  0  0  0  0  0
   -1.4224    2.2971    1.5355 H   0  0  0  0  0  0  0  0  0  0  0  0
   -1.6781   -1.4026    0.7614 C   0  0  0  0  0  0  0  0  0  0  0  0
   -1.8868   -1.0735    1.7799 H   0  0  0  0  0  0  0  0  0  0  0  0
   -2.2895   -2.2818    0.5418 H   0  0  0  0  0  0  0  0  0  0  0  0
   -0.1935   -1.7967    0.6745 C   0  0  0  0  0  0  0  0  0  0  0  0
    0.0135   -2.6007    1.3874 H   0  0  0  0  0  0  0  0  0  0  0  0
    0.0470   -2.1358   -0.3367 H   0  0  0  0  0  0  0  0  0  0  0  0
    0.6342   -0.7037    1.0092 O   0  0  0  0  0  0  0  0  0  0  0  0
    1.4931    0.0148   -0.1700 P   0  0  2  0  0  0  0  0  0  0  0  0
    1.1232   -0.4508   -1.5045 O   0  0  0  0  0  0  0  0  0  0  0  0
    2.9977   -0.2998    0.2231 O   0  0  0  0  0  0  0  0  0  0  0  0
    3.2467    0.1583    1.0252 H   0  0  0  0  0  0  0  0  0  0  0  0
    1.3894    1.5514    0.1581 O   0  0  0  0  0  0  0  0  0  0  0  0
    0.5176    1.8917   -0.1762 H   0  0  0  0  0  0  0  0  0  0  0  0
   -1.1235   -0.8755   -2.0259 H   0  0  0  0  0  0  0  0  0  0  0  0
   -2.6493   -1.6929   -1.6163 H   0  0  0  0  0  0  0  0  0  0  0  0
   -2.6694    0.0042   -2.1119 H   0  0  0  0  0  0  0  0  0  0  0  0
  1  2  1  0
  1 22  1  0
  1 23  1  0
  1 24  1  0
  2  3  1  0
  2  9  1  0
  3  4  2  0
  3  6  1  0
  4  5  1  0
  6  7  1  0
  6  8  1  0
  9 10  1  0
  9 11  1  0
  9 12  1  0
 12 13  1  0
 12 14  1  0
 12 15  1  0
 16 15  1  1
 16 17  2  0
 16 18  1  0
 16 20  1  0
 18 19  1  0
 20 21  1  0
M  END
$$$$

     RDKit          3D

 24 23  0  0  0  0  0  0  0  0999 V2000
   -2.1096   -0.6123   -1.5978 C   0  0  0  0  0  0  0  0  0  0  0  0
   -1.9702   -0.3365   -0.1791 N   0  0  0  0  0  0  0  0  0  0  0  0
   -1.4977    0.9023    0.1904 C   0  0  0  0  0  0  0  0  0  0  0  0
   -1.1654    1.8625   -0.5953 N   0  0  0  0  0  0  0  0  0  0  0  0
   -1.2694    1.6741   -1.5829 H   0  0  0  0  0  0  0  0  0  0  0  0
   -1.4855    1.1909    1.5381 N   0  0  0  0  0  0  0  0  0  0  0  0
   -1.1134    0.4924    2.1603 H   0  0  0  0  0  0  0  0  0  0  0  0
   -1.0982    2.1083    1.7062 H   0  0  0  0  0  0  0  0  0  0  0  0
   -1.6754   -1.4729    0.6617 C   0  0  0  0  0  0  0  0  0  0  0  0
   -1.9827   -1.2558    1.6867 H   0  0  0  0  0  0  0  0  0  0  0  0
   -2.2545   -2.3303    0.3112 H   0  0  0  0  0  0  0  0  0  0  0  0
   -0.1793   -1.8416    0.6176 C   0  0  0  0  0  0  0  0  0  0  0  0
    0.0345   -2.6465    1.3261 H   0  0  0  0  0  0  0  0  0  0  0  0
    0.0883   -2.1607   -0.3934 H   0  0  0  0  0  0  0  0  0  0  0  0
    0.6165   -0.7273    0.9781 O   0  0  0  0  0  0  0  0  0  0  0  0
    1.4445    0.0274   -0.1773 P   0  0  2  0  0  0  0  0  0  0  0  0
    1.0804   -0.3851   -1.5381 O   0  0  0  0  0  0  0  0  0  0  0  0
    2.9347   -0.3335    0.2500 O   0  0  0  0  0  0  0  0  0  0  0  0
    3.5436   -0.0872   -0.4438 H   0  0  0  0  0  0  0  0  0  0  0  0
    1.3518    1.5586    0.1611 O   0  0  0  0  0  0  0  0  0  0  0  0
    0.4824    1.9216   -0.1702 H   0  0  0  0  0  0  0  0  0  0  0  0
   -2.7276    0.1628   -2.0516 H   0  0  0  0  0  0  0  0  0  0  0  0
   -1.1445   -0.6565   -2.1113 H   0  0  0  0  0  0  0  0  0  0  0  0
   -2.6209   -1.5657   -1.7141 H   0  0  0  0  0  0  0  0  0  0  0  0
  1  2  1  0
  1 22  1  0
  1 23  1  0
  1 24  1  0
  2  3  1  0
  2  9  1  0
  3  4  2  0
  3  6  1  0
  4  5  1  0
  6  7  1  0
  6  8  1  0
  9 10  1  0
  9 11  1  0
  9 12  1  0
 12 13  1  0
 12 14  1  0
 12 15  1  0
 16 15  1  1
 16 17  2  0
 16 18  1  0
 16 20  1  0
 18 19  1  0
 20 21  1  0
M  END
$$$$

     RDKit          3D

 24 23  0  0  0  0  0  0  0  0999 V2000
   -3.0938   -0.8775   -0.6074 C   0  0  0  0  0  0  0  0  0  0  0  0
   -2.0780   -0.4241    0.3156 N   0  0  0  0  0  0  0  0  0  0  0  0
   -1.6398    0.8797    0.2560 C   0  0  0  0  0  0  0  0  0  0  0  0
   -0.8681    1.4671    1.0956 N   0  0  0  0  0  0  0  0  0  0  0  0
   -0.6073    0.9218    1.9071 H   0  0  0  0  0  0  0  0  0  0  0  0
   -2.1810    1.6575   -0.7404 N   0  0  0  0  0  0  0  0  0  0  0  0
   -2.2694    1.2383   -1.6520 H   0  0  0  0  0  0  0  0  0  0  0  0
   -1.7972    2.5902   -0.7466 H   0  0  0  0  0  0  0  0  0  0  0  0
   -1.1514   -1.4332    0.7768 C   0  0  0  0  0  0  0  0  0  0  0  0
   -0.5986   -1.0597    1.6391 H   0  0  0  0  0  0  0  0  0  0  0  0
   -1.7096   -2.3232    1.0762 H   0  0  0  0  0  0  0  0  0  0  0  0
   -0.1261   -1.8115   -0.3056 C   0  0  0  0  0  0  0  0  0  0  0  0
    0.6306   -2.4616    0.1397 H   0  0  0  0  0  0  0  0  0  0  0  0
   -0.6057   -2.3244   -1.1442 H   0  0  0  0  0  0  0  0  0  0  0  0
    0.4797   -0.6587   -0.8541 O   0  0  0  0  0  0  0  0  0  0  0  0
    1.6719    0.0453    0.0160 P   0  0  2  0  0  0  0  0  0  0  0  0
    1.7864   -0.5004    1.3641 O   0  0  0  0  0  0  0  0  0  0  0  0
    1.3884    1.5822   -0.1769 O   0  0  0  0  0  0  0  0  0  0  0  0
    0.5733    1.8026    0.3663 H   0  0  0  0  0  0  0  0  0  0  0  0
    2.9643   -0.1721   -0.8781 O   0  0  0  0  0  0  0  0  0  0  0  0
    2.9304    0.3524   -1.6775 H   0  0  0  0  0  0  0  0  0  0  0  0
   -3.5092   -1.8112   -0.2286 H   0  0  0  0  0  0  0  0  0  0  0  0
   -3.8895   -0.1357   -0.6520 H   0  0  0  0  0  0  0  0  0  0  0  0
   -2.7108   -1.0560   -1.6195 H   0  0  0  0  0  0  0  0  0  0  0  0
  1  2  1  0
  1 22  1  0
  1 23  1  0
  1 24  1  0
  2  3  1  0
  2  9  1  0
  3  4  2  0
  3  6  1  0
  4  5  1  0
  6  7  1  0
  6  8  1  0
  9 10  1  0
  9 11  1  0
  9 12  1  0
 12 13  1  0
 12 14  1  0
 12 15  1  0
 16 15  1  6
 16 17  2  0
 16 18  1  0
 16 20  1  0
 18 19  1  0
 20 21  1  0
M  END
$$$$

     RDKit          3D

 24 23  0  0  0  0  0  0  0  0999 V2000
   -2.0771   -0.7350   -1.5887 C   0  0  0  0  0  0  0  0  0  0  0  0
   -2.0233   -0.3609   -0.1856 N   0  0  0  0  0  0  0  0  0  0  0  0
   -1.5608    0.9107    0.1094 C   0  0  0  0  0  0  0  0  0  0  0  0
   -1.0911    1.7759   -0.7098 N   0  0  0  0  0  0  0  0  0  0  0  0
   -0.9704    1.4454   -1.6584 H   0  0  0  0  0  0  0  0  0  0  0  0
   -1.6386    1.2818    1.4292 N   0  0  0  0  0  0  0  0  0  0  0  0
   -2.3922    0.9078    1.9800 H   0  0  0  0  0  0  0  0  0  0  0  0
   -1.4414    2.2585    1.5763 H   0  0  0  0  0  0  0  0  0  0  0  0
   -1.6709   -1.4278    0.7267 C   0  0  0  0  0  0  0  0  0  0  0  0
   -1.8934   -1.1210    1.7491 H   0  0  0  0  0  0  0  0  0  0  0  0
   -2.2709   -2.3085    0.4829 H   0  0  0  0  0  0  0  0  0  0  0  0
   -0.1804   -1.8026    0.6486 C   0  0  0  0  0  0  0  0  0  0  0  0
    0.0360   -2.6074    1.3570 H   0  0  0  0  0  0  0  0  0  0  0  0
    0.0723   -2.1292   -0.3640 H   0  0  0  0  0  0  0  0  0  0  0  0
    0.6198   -0.6917    0.9998 O   0  0  0  0  0  0  0  0  0  0  0  0
    1.4780    0.0306   -0.1434 P   0  0  2  0  0  0  0  0  0  0  0  0
    1.1337   -0.3886   -1.5097 O   0  0  0  0  0  0  0  0  0  0  0  0
    2.9611   -0.3462    0.3000 O   0  0  0  0  0  0  0  0  0  0  0  0
    3.5761   -0.1121   -0.3927 H   0  0  0  0  0  0  0  0  0  0  0  0
    1.4046    1.5672    0.1771 O   0  0  0  0  0  0  0  0  0  0  0  0
    0.5310    1.9150   -0.1394 H   0  0  0  0  0  0  0  0  0  0  0  0
   -1.0867   -0.8362   -2.0420 H   0  0  0  0  0  0  0  0  0  0  0  0
   -2.6055   -1.6836   -1.6675 H   0  0  0  0  0  0  0  0  0  0  0  0
   -2.6443    0.0224   -2.1300 H   0  0  0  0  0  0  0  0  0  0  0  0
  1  2  1  0
  1 22  1  0
  1 23  1  0
  1 24  1  0
  2  3  1  0
  2  9  1  0
  3  4  2  0
  3  6  1  0
  4  5  1  0
  6  7  1  0
  6  8  1  0
  9 10  1  0
  9 11  1  0
  9 12  1  0
 12 13  1  0
 12 14  1  0
 12 15  1  0
 16 15  1  1
 16 17  2  0
 16 18  1  0
 16 20  1  0
 18 19  1  0
 20 21  1  0
M  END
$$$$

     RDKit          3D

 24 23  0  0  0  0  0  0  0  0999 V2000
   -3.0893   -0.8734   -0.5938 C   0  0  0  0  0  0  0  0  0  0  0  0
   -2.0785   -0.4172    0.3338 N   0  0  0  0  0  0  0  0  0  0  0  0
   -1.6214    0.8817    0.2494 C   0  0  0  0  0  0  0  0  0  0  0  0
   -0.8616    1.4782    1.0923 N   0  0  0  0  0  0  0  0  0  0  0  0
   -0.6225    0.9462    1.9193 H   0  0  0  0  0  0  0  0  0  0  0  0
   -2.1329    1.6402   -0.7765 N   0  0  0  0  0  0  0  0  0  0  0  0
   -2.1987    1.1968   -1.6789 H   0  0  0  0  0  0  0  0  0  0  0  0
   -1.7318    2.5656   -0.8014 H   0  0  0  0  0  0  0  0  0  0  0  0
   -1.1539   -1.4267    0.7981 C   0  0  0  0  0  0  0  0  0  0  0  0
   -0.5975   -1.0485    1.6564 H   0  0  0  0  0  0  0  0  0  0  0  0
   -1.7134   -2.3138    1.1034 H   0  0  0  0  0  0  0  0  0  0  0  0
   -0.1322   -1.8080   -0.2877 C   0  0  0  0  0  0  0  0  0  0  0  0
    0.6311   -2.4513    0.1555 H   0  0  0  0  0  0  0  0  0  0  0  0
   -0.6114   -2.3271   -1.1223 H   0  0  0  0  0  0  0  0  0  0  0  0
    0.4563   -0.6460   -0.8407 O   0  0  0  0  0  0  0  0  0  0  0  0
    1.6440    0.0515   -0.0028 P   0  0  2  0  0  0  0  0  0  0  0  0
    1.7937   -0.4581    1.3655 O   0  0  0  0  0  0  0  0  0  0  0  0
    1.4034    1.5912   -0.1931 O   0  0  0  0  0  0  0  0  0  0  0  0
    0.5953    1.8301    0.3453 H   0  0  0  0  0  0  0  0  0  0  0  0
    2.9034   -0.2278   -0.9382 O   0  0  0  0  0  0  0  0  0  0  0  0
    3.6974   -0.1960   -0.4073 H   0  0  0  0  0  0  0  0  0  0  0  0
   -3.8744   -0.1221   -0.6586 H   0  0  0  0  0  0  0  0  0  0  0  0
   -2.6983   -1.0725   -1.5989 H   0  0  0  0  0  0  0  0  0  0  0  0
   -3.5203   -1.7956   -0.2042 H   0  0  0  0  0  0  0  0  0  0  0  0
  1  2  1  0
  1 22  1  0
  1 23  1  0
  1 24  1  0
  2  3  1  0
  2  9  1  0
  3  4  2  0
  3  6  1  0
  4  5  1  0
  6  7  1  0
  6  8  1  0
  9 10  1  0
  9 11  1  0
  9 12  1  0
 12 13  1  0
 12 14  1  0
 12 15  1  0
 16 15  1  6
 16 17  2  0
 16 18  1  0
 16 20  1  0
 18 19  1  0
 20 21  1  0
M  END
$$$$

     RDKit          3D

 24 23  0  0  0  0  0  0  0  0999 V2000
   -2.7010   -0.7646   -1.0411 C   0  0  0  0  0  0  0  0  0  0  0  0
   -2.0400   -0.3033    0.1639 N   0  0  0  0  0  0  0  0  0  0  0  0
   -1.4566    0.9594    0.1184 C   0  0  0  0  0  0  0  0  0  0  0  0
   -1.2473    1.6664   -0.9354 N   0  0  0  0  0  0  0  0  0  0  0  0
   -1.5402    1.2366   -1.8032 H   0  0  0  0  0  0  0  0  0  0  0  0
   -1.2043    1.5503    1.3171 N   0  0  0  0  0  0  0  0  0  0  0  0
   -0.9973    0.9794    2.1179 H   0  0  0  0  0  0  0  0  0  0  0  0
   -0.6517    2.3901    1.2512 H   0  0  0  0  0  0  0  0  0  0  0  0
   -1.3481   -1.3410    0.8954 C   0  0  0  0  0  0  0  0  0  0  0  0
   -0.9307   -0.9268    1.8107 H   0  0  0  0  0  0  0  0  0  0  0  0
   -2.0606   -2.1280    1.1596 H   0  0  0  0  0  0  0  0  0  0  0  0
   -0.1931   -1.9638    0.0776 C   0  0  0  0  0  0  0  0  0  0  0  0
    0.5066   -2.4494    0.7626 H   0  0  0  0  0  0  0  0  0  0  0  0
   -0.5717   -2.7004   -0.6368 H   0  0  0  0  0  0  0  0  0  0  0  0
    0.4752   -0.9959   -0.7049 O   0  0  0  0  0  0  0  0  0  0  0  0
    1.4864    0.0489    0.0248 P   0  0  2  0  0  0  0  0  0  0  0  0
    1.2777    0.1468    1.4678 O   0  0  0  0  0  0  0  0  0  0  0  0
    1.3600    1.3288   -0.8799 O   0  0  0  0  0  0  0  0  0  0  0  0
    0.4133    1.6546   -0.9548 H   0  0  0  0  0  0  0  0  0  0  0  0
    2.9368   -0.4772   -0.3460 O   0  0  0  0  0  0  0  0  0  0  0  0
    3.1267   -0.3658   -1.2773 H   0  0  0  0  0  0  0  0  0  0  0  0
   -3.2819   -1.6511   -0.7894 H   0  0  0  0  0  0  0  0  0  0  0  0
   -3.3855    0.0100   -1.3859 H   0  0  0  0  0  0  0  0  0  0  0  0
   -2.0047   -1.0177   -1.8492 H   0  0  0  0  0  0  0  0  0  0  0  0
  1  2  1  0
  1 22  1  0
  1 23  1  0
  1 24  1  0
  2  3  1  0
  2  9  1  0
  3  4  2  0
  3  6  1  0
  4  5  1  0
  6  7  1  0
  6  8  1  0
  9 10  1  0
  9 11  1  0
  9 12  1  0
 12 13  1  0
 12 14  1  0
 12 15  1  0
 16 15  1  6
 16 17  2  0
 16 18  1  0
 16 20  1  0
 18 19  1  0
 20 21  1  0
M  END
$$$$

     RDKit          3D

 24 23  0  0  0  0  0  0  0  0999 V2000
   -2.0706   -0.6778   -1.6044 C   0  0  0  0  0  0  0  0  0  0  0  0
   -1.8552   -0.3501   -0.2114 N   0  0  0  0  0  0  0  0  0  0  0  0
   -1.4986    0.9071    0.1889 C   0  0  0  0  0  0  0  0  0  0  0  0
   -1.2731    1.9372   -0.5447 N   0  0  0  0  0  0  0  0  0  0  0  0
   -1.4317    1.8239   -1.5368 H   0  0  0  0  0  0  0  0  0  0  0  0
   -1.4444    1.1276    1.5555 N   0  0  0  0  0  0  0  0  0  0  0  0
   -0.9014    0.4729    2.0966 H   0  0  0  0  0  0  0  0  0  0  0  0
   -1.1794    2.0853    1.7398 H   0  0  0  0  0  0  0  0  0  0  0  0
   -1.6339   -1.4689    0.6730 C   0  0  0  0  0  0  0  0  0  0  0  0
   -1.9830   -1.2167    1.6762 H   0  0  0  0  0  0  0  0  0  0  0  0
   -2.2138   -2.3224    0.3158 H   0  0  0  0  0  0  0  0  0  0  0  0
   -0.1422   -1.8599    0.6970 C   0  0  0  0  0  0  0  0  0  0  0  0
    0.0386   -2.6263    1.4557 H   0  0  0  0  0  0  0  0  0  0  0  0
    0.1496   -2.2396   -0.2859 H   0  0  0  0  0  0  0  0  0  0  0  0
    0.6749   -0.7500    1.0146 O   0  0  0  0  0  0  0  0  0  0  0  0
    1.4227    0.0314   -0.2132 P   0  0  2  0  0  0  0  0  0  0  0  0
    0.9851   -0.4216   -1.5273 O   0  0  0  0  0  0  0  0  0  0  0  0
    2.9572   -0.2345    0.0848 O   0  0  0  0  0  0  0  0  0  0  0  0
    3.2545    0.2310    0.8657 H   0  0  0  0  0  0  0  0  0  0  0  0
    1.2879    1.5580    0.1590 O   0  0  0  0  0  0  0  0  0  0  0  0
    0.4216    1.9261   -0.1628 H   0  0  0  0  0  0  0  0  0  0  0  0
   -3.1418   -0.7911   -1.7977 H   0  0  0  0  0  0  0  0  0  0  0  0
   -1.6701    0.0937   -2.2573 H   0  0  0  0  0  0  0  0  0  0  0  0
   -1.5564   -1.6033   -1.8569 H   0  0  0  0  0  0  0  0  0  0  0  0
  1  2  1  0
  1 22  1  0
  1 23  1  0
  1 24  1  0
  2  3  1  0
  2  9  1  0
  3  4  2  0
  3  6  1  0
  4  5  1  0
  6  7  1  0
  6  8  1  0
  9 10  1  0
  9 11  1  0
  9 12  1  0
 12 13  1  0
 12 14  1  0
 12 15  1  0
 16 15  1  1
 16 17  2  0
 16 18  1  0
 16 20  1  0
 18 19  1  0
 20 21  1  0
M  END
$$$$
