
     RDKit          3D

 21 21  0  0  0  0  0  0  0  0999 V2000
    4.3775    1.4756   -0.0221 N   0  0  0  0  0  0  0  0  0  0  0  0
    3.5513    0.3887    0.0010 C   0  0  0  0  0  0  0  0  0  0  0  0
    3.9737   -0.7421   -0.0218 O   0  0  0  0  0  0  0  0  0  0  0  0
    2.2144    0.7378    0.0218 N   0  0  0  0  0  0  0  0  0  0  0  0
    1.1069   -0.1004    0.0104 C   0  0  0  0  0  0  0  0  0  0  0  0
   -0.1552    0.4898    0.0048 C   0  0  0  0  0  0  0  0  0  0  0  0
   -1.2915   -0.3047   -0.0004 C   0  0  0  0  0  0  0  0  0  0  0  0
   -1.1974   -1.6880    0.0001 C   0  0  0  0  0  0  0  0  0  0  0  0
    0.0612   -2.2671    0.0054 C   0  0  0  0  0  0  0  0  0  0  0  0
    1.2046   -1.4921    0.0110 C   0  0  0  0  0  0  0  0  0  0  0  0
    2.1799   -1.9491    0.0139 H   0  0  0  0  0  0  0  0  0  0  0  0
    0.1513   -3.3421    0.0053 H   0  0  0  0  0  0  0  0  0  0  0  0
   -2.0888   -2.2944   -0.0041 H   0  0  0  0  0  0  0  0  0  0  0  0
   -2.6235    0.3869   -0.0037 C   0  0  1  0  0  0  0  0  0  0  0  0
   -2.7686    1.2062   -1.0649 F   0  0  0  0  0  0  0  0  0  0  0  0
   -3.6660   -0.4513   -0.0290 F   0  0  0  0  0  0  0  0  0  0  0  0
   -2.7918    1.1694    1.0820 F   0  0  0  0  0  0  0  0  0  0  0  0
   -0.2580    1.5658    0.0037 H   0  0  0  0  0  0  0  0  0  0  0  0
    1.9974    1.7241    0.0066 H   0  0  0  0  0  0  0  0  0  0  0  0
    4.0597    2.4103    0.1589 H   0  0  0  0  0  0  0  0  0  0  0  0
    5.3635    1.2941    0.0474 H   0  0  0  0  0  0  0  0  0  0  0  0
  1  2  1  0
  1 20  1  0
  1 21  1  0
  2  3  2  0
  2  4  1  0
  4  5  1  0
  4 19  1  0
  5  6  2  0
  5 10  1  0
  6  7  1  0
  6 18  1  0
  7  8  2  0
  7 14  1  0
  8  9  1  0
  8 13  1  0
  9 10  2  0
  9 12  1  0
 10 11  1  0
 14 15  1  6
 14 16  1  0
 14 17  1  0
M  END
$$$$

     RDKit          3D

 21 21  0  0  0  0  0  0  0  0999 V2000
   -4.4129   -1.4512   -0.0231 N   0  0  0  0  0  0  0  0  0  0  0  0
   -3.5728   -0.3747   -0.0004 C   0  0  0  0  0  0  0  0  0  0  0  0
   -3.9807    0.7613   -0.0286 O   0  0  0  0  0  0  0  0  0  0  0  0
   -2.2407   -0.7408    0.0261 N   0  0  0  0  0  0  0  0  0  0  0  0
   -1.1222    0.0833    0.0147 C   0  0  0  0  0  0  0  0  0  0  0  0
    0.1319   -0.5273    0.0132 C   0  0  0  0  0  0  0  0  0  0  0  0
    1.2768    0.2507    0.0110 C   0  0  0  0  0  0  0  0  0  0  0  0
    1.2001    1.6375    0.0063 C   0  0  0  0  0  0  0  0  0  0  0  0
   -0.0480    2.2355    0.0067 C   0  0  0  0  0  0  0  0  0  0  0  0
   -1.2022    1.4751    0.0115 C   0  0  0  0  0  0  0  0  0  0  0  0
   -2.1713    1.9450    0.0109 H   0  0  0  0  0  0  0  0  0  0  0  0
   -0.1235    3.3116    0.0032 H   0  0  0  0  0  0  0  0  0  0  0  0
    2.1027    2.2278    0.0043 H   0  0  0  0  0  0  0  0  0  0  0  0
    2.6323   -0.3940   -0.0019 C   0  0  1  0  0  0  0  0  0  0  0  0
    2.5920   -1.7264    0.1563 F   0  0  0  0  0  0  0  0  0  0  0  0
    3.2891   -0.1750   -1.1580 F   0  0  0  0  0  0  0  0  0  0  0  0
    3.4330    0.0765    0.9711 F   0  0  0  0  0  0  0  0  0  0  0  0
    0.2134   -1.6045    0.0156 H   0  0  0  0  0  0  0  0  0  0  0  0
   -2.0365   -1.7299    0.0142 H   0  0  0  0  0  0  0  0  0  0  0  0
   -4.1081   -2.3883    0.1675 H   0  0  0  0  0  0  0  0  0  0  0  0
   -5.3965   -1.2561    0.0447 H   0  0  0  0  0  0  0  0  0  0  0  0
  1  2  1  0
  1 20  1  0
  1 21  1  0
  2  3  2  0
  2  4  1  0
  4  5  1  0
  4 19  1  0
  5  6  2  0
  5 10  1  0
  6  7  1  0
  6 18  1  0
  7  8  2  0
  7 14  1  0
  8  9  1  0
  8 13  1  0
  9 10  2  0
  9 12  1  0
 10 11  1  0
 14 15  1  1
 14 16  1  0
 14 17  1  0
M  END
$$$$

     RDKit          3D

 21 21  0  0  0  0  0  0  0  0999 V2000
   -4.4437   -0.7219   -0.0152 N   0  0  0  0  0  0  0  0  0  0  0  0
   -3.0768   -0.7350   -0.0003 C   0  0  0  0  0  0  0  0  0  0  0  0
   -2.4413   -1.7591   -0.0495 O   0  0  0  0  0  0  0  0  0  0  0  0
   -2.5345    0.5362    0.0396 N   0  0  0  0  0  0  0  0  0  0  0  0
   -1.1939    0.8989    0.0167 C   0  0  0  0  0  0  0  0  0  0  0  0
   -0.1610   -0.0346    0.0278 C   0  0  0  0  0  0  0  0  0  0  0  0
    1.1534    0.4080    0.0132 C   0  0  0  0  0  0  0  0  0  0  0  0
    1.4666    1.7591   -0.0158 C   0  0  0  0  0  0  0  0  0  0  0  0
    0.4335    2.6810   -0.0248 C   0  0  0  0  0  0  0  0  0  0  0  0
   -0.8808    2.2596   -0.0084 C   0  0  0  0  0  0  0  0  0  0  0  0
   -1.6783    2.9895   -0.0160 H   0  0  0  0  0  0  0  0  0  0  0  0
    0.6573    3.7363   -0.0455 H   0  0  0  0  0  0  0  0  0  0  0  0
    2.4952    2.0818   -0.0282 H   0  0  0  0  0  0  0  0  0  0  0  0
    2.2430   -0.6268    0.0073 C   0  0  1  0  0  0  0  0  0  0  0  0
    3.4640   -0.1099    0.2200 F   0  0  0  0  0  0  0  0  0  0  0  0
    2.0658   -1.5687    0.9482 F   0  0  0  0  0  0  0  0  0  0  0  0
    2.3163   -1.2805   -1.1680 F   0  0  0  0  0  0  0  0  0  0  0  0
   -0.3875   -1.0880    0.0469 H   0  0  0  0  0  0  0  0  0  0  0  0
   -3.1819    1.3113    0.0254 H   0  0  0  0  0  0  0  0  0  0  0  0
   -4.9829    0.0914    0.2209 H   0  0  0  0  0  0  0  0  0  0  0  0
   -4.8981   -1.6160    0.0535 H   0  0  0  0  0  0  0  0  0  0  0  0
  1  2  1  0
  1 20  1  0
  1 21  1  0
  2  3  2  0
  2  4  1  0
  4  5  1  0
  4 19  1  0
  5  6  2  0
  5 10  1  0
  6  7  1  0
  6 18  1  0
  7  8  2  0
  7 14  1  0
  8  9  1  0
  8 13  1  0
  9 10  2  0
  9 12  1  0
 10 11  1  0
 14 15  1  1
 14 16  1  0
 14 17  1  0
M  END
$$$$

     RDKit          3D

 21 21  0  0  0  0  0  0  0  0999 V2000
    4.4772    0.6955    0.0158 N   0  0  0  0  0  0  0  0  0  0  0  0
    3.1109    0.7262   -0.0010 C   0  0  0  0  0  0  0  0  0  0  0  0
    2.4889    1.7590    0.0380 O   0  0  0  0  0  0  0  0  0  0  0  0
    2.5521   -0.5380   -0.0325 N   0  0  0  0  0  0  0  0  0  0  0  0
    1.2070   -0.8847   -0.0118 C   0  0  0  0  0  0  0  0  0  0  0  0
    0.1857    0.0636   -0.0164 C   0  0  0  0  0  0  0  0  0  0  0  0
   -1.1310   -0.3649   -0.0030 C   0  0  0  0  0  0  0  0  0  0  0  0
   -1.4598   -1.7147    0.0153 C   0  0  0  0  0  0  0  0  0  0  0  0
   -0.4401   -2.6494    0.0192 C   0  0  0  0  0  0  0  0  0  0  0  0
    0.8793   -2.2413    0.0055 C   0  0  0  0  0  0  0  0  0  0  0  0
    1.6689   -2.9798    0.0089 H   0  0  0  0  0  0  0  0  0  0  0  0
   -0.6754   -3.7022    0.0334 H   0  0  0  0  0  0  0  0  0  0  0  0
   -2.4941   -2.0201    0.0257 H   0  0  0  0  0  0  0  0  0  0  0  0
   -2.2572    0.6295   -0.0039 C   0  0  1  0  0  0  0  0  0  0  0  0
   -3.0202    0.5264    1.1034 F   0  0  0  0  0  0  0  0  0  0  0  0
   -1.8612    1.9035   -0.0718 F   0  0  0  0  0  0  0  0  0  0  0  0
   -3.0973    0.4370   -1.0413 F   0  0  0  0  0  0  0  0  0  0  0  0
    0.4284    1.1134   -0.0277 H   0  0  0  0  0  0  0  0  0  0  0  0
    3.1895   -1.3213   -0.0186 H   0  0  0  0  0  0  0  0  0  0  0  0
    5.0077   -0.1287   -0.2010 H   0  0  0  0  0  0  0  0  0  0  0  0
    4.9449    1.5824   -0.0552 H   0  0  0  0  0  0  0  0  0  0  0  0
  1  2  1  0
  1 20  1  0
  1 21  1  0
  2  3  2  0
  2  4  1  0
  4  5  1  0
  4 19  1  0
  5  6  2  0
  5 10  1  0
  6  7  1  0
  6 18  1  0
  7  8  2  0
  7 14  1  0
  8  9  1  0
  8 13  1  0
  9 10  2  0
  9 12  1  0
 10 11  1  0
 14 15  1  1
 14 16  1  0
 14 17  1  0
M  END
$$$$

     RDKit          3D

 21 21  0  0  0  0  0  0  0  0999 V2000
   -2.4904   -1.6258    0.6899 N   0  0  0  0  0  0  0  0  0  0  0  0
   -3.1849   -0.6714    0.0113 C   0  0  0  0  0  0  0  0  0  0  0  0
   -4.3189   -0.8227   -0.3794 O   0  0  0  0  0  0  0  0  0  0  0  0
   -2.5286    0.5282   -0.2206 N   0  0  0  0  0  0  0  0  0  0  0  0
   -1.1998    0.8940   -0.0893 C   0  0  0  0  0  0  0  0  0  0  0  0
   -0.1541   -0.0255   -0.1473 C   0  0  0  0  0  0  0  0  0  0  0  0
    1.1549    0.4123    0.0003 C   0  0  0  0  0  0  0  0  0  0  0  0
    1.4563    1.7526    0.1818 C   0  0  0  0  0  0  0  0  0  0  0  0
    0.4161    2.6688    0.1992 C   0  0  0  0  0  0  0  0  0  0  0  0
   -0.8913    2.2498    0.0660 C   0  0  0  0  0  0  0  0  0  0  0  0
   -1.6941    2.9722    0.0820 H   0  0  0  0  0  0  0  0  0  0  0  0
    0.6319    3.7186    0.3224 H   0  0  0  0  0  0  0  0  0  0  0  0
    2.4792    2.0722    0.2965 H   0  0  0  0  0  0  0  0  0  0  0  0
    2.2398   -0.6252   -0.0589 C   0  0  1  0  0  0  0  0  0  0  0  0
    2.0110   -1.6374    0.8023 F   0  0  0  0  0  0  0  0  0  0  0  0
    2.3371   -1.1934   -1.2750 F   0  0  0  0  0  0  0  0  0  0  0  0
    3.4546   -0.1470    0.2349 F   0  0  0  0  0  0  0  0  0  0  0  0
   -0.3457   -1.0688   -0.3414 H   0  0  0  0  0  0  0  0  0  0  0  0
   -3.1552    1.2467   -0.5584 H   0  0  0  0  0  0  0  0  0  0  0  0
   -1.7176   -1.3746    1.2820 H   0  0  0  0  0  0  0  0  0  0  0  0
   -3.0261   -2.4358    0.9555 H   0  0  0  0  0  0  0  0  0  0  0  0
  1  2  1  0
  1 20  1  0
  1 21  1  0
  2  3  2  0
  2  4  1  0
  4  5  1  0
  4 19  1  0
  5  6  2  0
  5 10  1  0
  6  7  1  0
  6 18  1  0
  7  8  2  0
  7 14  1  0
  8  9  1  0
  8 13  1  0
  9 10  2  0
  9 12  1  0
 10 11  1  0
 14 15  1  1
 14 16  1  0
 14 17  1  0
M  END
$$$$

     RDKit          3D

 21 21  0  0  0  0  0  0  0  0999 V2000
    2.5259    1.6276    0.6835 N   0  0  0  0  0  0  0  0  0  0  0  0
    3.2132    0.6639    0.0095 C   0  0  0  0  0  0  0  0  0  0  0  0
    4.3477    0.8047   -0.3833 O   0  0  0  0  0  0  0  0  0  0  0  0
    2.5471   -0.5314   -0.2135 N   0  0  0  0  0  0  0  0  0  0  0  0
    1.2135   -0.8835   -0.0875 C   0  0  0  0  0  0  0  0  0  0  0  0
    0.1779    0.0484   -0.1601 C   0  0  0  0  0  0  0  0  0  0  0  0
   -1.1348   -0.3771   -0.0285 C   0  0  0  0  0  0  0  0  0  0  0  0
   -1.4490   -1.7150    0.1652 C   0  0  0  0  0  0  0  0  0  0  0  0
   -0.4200   -2.6415    0.2011 C   0  0  0  0  0  0  0  0  0  0  0  0
    0.8926   -2.2347    0.0752 C   0  0  0  0  0  0  0  0  0  0  0  0
    1.6888   -2.9639    0.1027 H   0  0  0  0  0  0  0  0  0  0  0  0
   -0.6464   -3.6880    0.3321 H   0  0  0  0  0  0  0  0  0  0  0  0
   -2.4775   -2.0212    0.2687 H   0  0  0  0  0  0  0  0  0  0  0  0
   -2.2526    0.6262   -0.0673 C   0  0  1  0  0  0  0  0  0  0  0  0
   -1.8864    1.8140   -0.5689 F   0  0  0  0  0  0  0  0  0  0  0  0
   -3.2978    0.2073   -0.7974 F   0  0  0  0  0  0  0  0  0  0  0  0
   -2.7382    0.8776    1.1672 F   0  0  0  0  0  0  0  0  0  0  0  0
    0.3873    1.0868   -0.3603 H   0  0  0  0  0  0  0  0  0  0  0  0
    3.1669   -1.2578   -0.5469 H   0  0  0  0  0  0  0  0  0  0  0  0
    1.7577    1.3811    1.2834 H   0  0  0  0  0  0  0  0  0  0  0  0
    3.0685    2.4348    0.9438 H   0  0  0  0  0  0  0  0  0  0  0  0
  1  2  1  0
  1 20  1  0
  1 21  1  0
  2  3  2  0
  2  4  1  0
  4  5  1  0
  4 19  1  0
  5  6  2  0
  5 10  1  0
  6  7  1  0
  6 18  1  0
  7  8  2  0
  7 14  1  0
  8  9  1  0
  8 13  1  0
  9 10  2  0
  9 12  1  0
 10 11  1  0
 14 15  1  6
 14 16  1  0
 14 17  1  0
M  END
$$$$

     RDKit          3D

 21 21  0  0  0  0  0  0  0  0999 V2000
    3.8210    0.6171    0.7804 N   0  0  0  0  0  0  0  0  0  0  0  0
    3.5622   -0.5158    0.0646 C   0  0  0  0  0  0  0  0  0  0  0  0
    4.4173   -1.3005   -0.2718 O   0  0  0  0  0  0  0  0  0  0  0  0
    2.2377   -0.7409   -0.2713 N   0  0  0  0  0  0  0  0  0  0  0  0
    1.1254    0.0837   -0.2123 C   0  0  0  0  0  0  0  0  0  0  0  0
   -0.1345   -0.5099   -0.1190 C   0  0  0  0  0  0  0  0  0  0  0  0
   -1.2713    0.2794   -0.0732 C   0  0  0  0  0  0  0  0  0  0  0  0
   -1.1860    1.6643   -0.1146 C   0  0  0  0  0  0  0  0  0  0  0  0
    0.0631    2.2489   -0.2336 C   0  0  0  0  0  0  0  0  0  0  0  0
    1.2077    1.4759   -0.2884 C   0  0  0  0  0  0  0  0  0  0  0  0
    2.1666    1.9488   -0.4283 H   0  0  0  0  0  0  0  0  0  0  0  0
    0.1448    3.3229   -0.2961 H   0  0  0  0  0  0  0  0  0  0  0  0
   -2.0794    2.2661   -0.0735 H   0  0  0  0  0  0  0  0  0  0  0  0
   -2.6090   -0.3903    0.0666 C   0  0  1  0  0  0  0  0  0  0  0  0
   -3.6255    0.3682   -0.3655 F   0  0  0  0  0  0  0  0  0  0  0  0
   -2.6818   -1.5487   -0.6087 F   0  0  0  0  0  0  0  0  0  0  0  0
   -2.8861   -0.6924    1.3521 F   0  0  0  0  0  0  0  0  0  0  0  0
   -0.2233   -1.5856   -0.0887 H   0  0  0  0  0  0  0  0  0  0  0  0
    2.0816   -1.6758   -0.6242 H   0  0  0  0  0  0  0  0  0  0  0  0
    3.0948    1.0335    1.3379 H   0  0  0  0  0  0  0  0  0  0  0  0
    4.7608    0.6846    1.1359 H   0  0  0  0  0  0  0  0  0  0  0  0
  1  2  1  0
  1 20  1  0
  1 21  1  0
  2  3  2  0
  2  4  1  0
  4  5  1  0
  4 19  1  0
  5  6  2  0
  5 10  1  0
  6  7  1  0
  6 18  1  0
  7  8  2  0
  7 14  1  0
  8  9  1  0
  8 13  1  0
  9 10  2  0
  9 12  1  0
 10 11  1  0
 14 15  1  6
 14 16  1  0
 14 17  1  0
M  END
$$$$
