
     RDKit          3D

 23 25  0  0  0  0  0  0  0  0999 V2000
   -3.5434   -1.5515   -0.0981 N   0  0  0  0  0  0  0  0  0  0  0  0
   -2.5542   -0.6295   -0.0659 C   0  0  0  0  0  0  0  0  0  0  0  0
   -2.9171    0.6540   -0.0481 N   0  0  0  0  0  0  0  0  0  0  0  0
   -1.9432    1.5446    0.0607 C   0  0  0  0  0  0  0  0  0  0  0  0
   -0.6062    1.1980    0.1361 C   0  0  0  0  0  0  0  0  0  0  0  0
   -0.3386   -0.1837    0.0703 C   0  0  0  0  0  0  0  0  0  0  0  0
   -1.3009   -1.0873   -0.0287 N   0  0  0  0  0  0  0  0  0  0  0  0
    1.0512   -0.5840    0.0684 C   0  0  0  0  0  0  0  0  0  0  0  0
    2.0352    0.3514   -0.1342 C   0  0  0  0  0  0  0  0  0  0  0  0
    3.2431   -0.2287   -0.1332 O   0  0  0  0  0  0  0  0  0  0  0  0
    3.0415   -1.5507    0.0811 C   0  0  0  0  0  0  0  0  0  0  0  0
    1.7192   -1.8319    0.2078 C   0  0  0  0  0  0  0  0  0  0  0  0
    1.2638   -2.7835    0.3823 H   0  0  0  0  0  0  0  0  0  0  0  0
    3.9144   -2.1712    0.1206 H   0  0  0  0  0  0  0  0  0  0  0  0
    1.7954    1.7986   -0.3798 C   0  0  0  0  0  0  0  0  0  0  0  0
    2.6357    2.3979   -0.0262 H   0  0  0  0  0  0  0  0  0  0  0  0
    0.5006    2.1963    0.3416 C   0  0  0  0  0  0  0  0  0  0  0  0
    0.1744    3.1837    0.0107 H   0  0  0  0  0  0  0  0  0  0  0  0
    0.7028    2.2565    1.4174 H   0  0  0  0  0  0  0  0  0  0  0  0
    1.6930    1.9695   -1.4577 H   0  0  0  0  0  0  0  0  0  0  0  0
   -2.2613    2.5807    0.0820 H   0  0  0  0  0  0  0  0  0  0  0  0
   -4.4738   -1.2329   -0.2992 H   0  0  0  0  0  0  0  0  0  0  0  0
   -3.2902   -2.5041   -0.2881 H   0  0  0  0  0  0  0  0  0  0  0  0
  1  2  1  0
  1 22  1  0
  1 23  1  0
  2  3  2  0
  2  7  1  0
  3  4  1  0
  4  5  2  0
  4 21  1  0
  5  6  1  0
  5 17  1  0
  6  7  2  0
  6  8  1  0
  8  9  2  0
  8 12  1  0
  9 10  1  0
  9 15  1  0
 10 11  1  0
 11 12  2  0
 11 14  1  0
 12 13  1  0
 15 16  1  0
 15 17  1  0
 15 20  1  0
 17 18  1  0
 17 19  1  0
M  END
$$$$
