
     RDKit          3D

 16 17  0  0  0  0  0  0  0  0999 V2000
   -2.9583   -1.1286    0.0000 O   0  0  0  0  0  0  0  0  0  0  0  0
   -2.3674   -0.0699   -0.0000 C   0  0  0  0  0  0  0  0  0  0  0  0
   -0.9237    0.0505    0.0000 C   0  0  0  0  0  0  0  0  0  0  0  0
   -0.1085    1.1786    0.0000 C   0  0  0  0  0  0  0  0  0  0  0  0
    1.1942    0.6807    0.0000 C   0  0  0  0  0  0  0  0  0  0  0  0
    1.1410   -0.7251    0.0000 C   0  0  0  0  0  0  0  0  0  0  0  0
   -0.1559   -1.0944    0.0000 N   0  0  0  0  0  0  0  0  0  0  0  0
   -0.5540   -2.0195    0.0000 H   0  0  0  0  0  0  0  0  0  0  0  0
    2.4822   -1.1737   -0.0000 C   0  0  0  0  0  0  0  0  0  0  0  0
    3.2257   -0.0290   -0.0000 C   0  0  0  0  0  0  0  0  0  0  0  0
    2.4770    1.0995   -0.0000 O   0  0  0  0  0  0  0  0  0  0  0  0
    4.2897    0.1057   -0.0000 H   0  0  0  0  0  0  0  0  0  0  0  0
    2.8530   -2.1775   -0.0000 H   0  0  0  0  0  0  0  0  0  0  0  0
   -0.4436    2.1948    0.0000 H   0  0  0  0  0  0  0  0  0  0  0  0
   -3.0057    1.1122   -0.0000 O   0  0  0  0  0  0  0  0  0  0  0  0
   -3.9635    0.9605   -0.0000 H   0  0  0  0  0  0  0  0  0  0  0  0
  1  2  2  0
  2  3  1  0
  2 15  1  0
  3  4  2  0
  3  7  1  0
  4  5  1  0
  4 14  1  0
  5  6  2  0
  5 11  1  0
  6  7  1  0
  6  9  1  0
  7  8  1  0
  9 10  2  0
  9 13  1  0
 10 11  1  0
 10 12  1  0
 15 16  1  0
M  END
$$$$

     RDKit          3D

 16 17  0  0  0  0  0  0  0  0999 V2000
    3.0892    1.0802   -0.0000 O   0  0  0  0  0  0  0  0  0  0  0  0
    2.3711    0.1106   -0.0000 C   0  0  0  0  0  0  0  0  0  0  0  0
    0.9234    0.1213    0.0000 C   0  0  0  0  0  0  0  0  0  0  0  0
    0.0734    1.2242    0.0000 C   0  0  0  0  0  0  0  0  0  0  0  0
   -1.2140    0.6887    0.0000 C   0  0  0  0  0  0  0  0  0  0  0  0
   -1.1186   -0.7143    0.0000 C   0  0  0  0  0  0  0  0  0  0  0  0
    0.1895   -1.0467    0.0000 N   0  0  0  0  0  0  0  0  0  0  0  0
    0.6023   -1.9642   -0.0000 H   0  0  0  0  0  0  0  0  0  0  0  0
   -2.4452   -1.2037    0.0000 C   0  0  0  0  0  0  0  0  0  0  0  0
   -3.2230   -0.0816   -0.0000 C   0  0  0  0  0  0  0  0  0  0  0  0
   -2.5087    1.0683   -0.0000 O   0  0  0  0  0  0  0  0  0  0  0  0
   -4.2906    0.0206   -0.0000 H   0  0  0  0  0  0  0  0  0  0  0  0
   -2.7859   -2.2181    0.0000 H   0  0  0  0  0  0  0  0  0  0  0  0
    0.3825    2.2485    0.0000 H   0  0  0  0  0  0  0  0  0  0  0  0
    2.8734   -1.1509   -0.0000 O   0  0  0  0  0  0  0  0  0  0  0  0
    3.8411   -1.1040   -0.0000 H   0  0  0  0  0  0  0  0  0  0  0  0
  1  2  2  0
  2  3  1  0
  2 15  1  0
  3  4  2  0
  3  7  1  0
  4  5  1  0
  4 14  1  0
  5  6  2  0
  5 11  1  0
  6  7  1  0
  6  9  1  0
  7  8  1  0
  9 10  2  0
  9 13  1  0
 10 11  1  0
 10 12  1  0
 15 16  1  0
M  END
$$$$
