
     RDKit          3D

 20 20  0  0  0  0  0  0  0  0999 V2000
   -3.9511   -0.5679   -0.0007 C   0  0  0  0  0  0  0  0  0  0  0  0
   -2.6309    0.1795   -0.0003 C   0  0  0  0  0  0  0  0  0  0  0  0
   -2.5548    1.3865   -0.0015 O   0  0  0  0  0  0  0  0  0  0  0  0
   -1.5621   -0.6677    0.0015 N   0  0  0  0  0  0  0  0  0  0  0  0
   -0.1939   -0.3665    0.0011 C   0  0  0  0  0  0  0  0  0  0  0  0
    0.2940    0.9354    0.0017 C   0  0  0  0  0  0  0  0  0  0  0  0
    1.6574    1.1625    0.0010 C   0  0  0  0  0  0  0  0  0  0  0  0
    2.5548    0.1022   -0.0003 C   0  0  0  0  0  0  0  0  0  0  0  0
    2.0681   -1.2013   -0.0008 C   0  0  0  0  0  0  0  0  0  0  0  0
    0.7085   -1.4292   -0.0000 C   0  0  0  0  0  0  0  0  0  0  0  0
    0.3399   -2.4457   -0.0005 H   0  0  0  0  0  0  0  0  0  0  0  0
    2.7697   -2.0199   -0.0016 H   0  0  0  0  0  0  0  0  0  0  0  0
    3.9040    0.2888   -0.0011 O   0  0  0  0  0  0  0  0  0  0  0  0
    4.1006    1.2332   -0.0010 H   0  0  0  0  0  0  0  0  0  0  0  0
    2.0273    2.1792    0.0014 H   0  0  0  0  0  0  0  0  0  0  0  0
   -0.3944    1.7631    0.0025 H   0  0  0  0  0  0  0  0  0  0  0  0
   -1.7673   -1.6574    0.0019 H   0  0  0  0  0  0  0  0  0  0  0  0
   -4.0282   -1.1958   -0.8861 H   0  0  0  0  0  0  0  0  0  0  0  0
   -4.7655    0.1503   -0.0011 H   0  0  0  0  0  0  0  0  0  0  0  0
   -4.0289   -1.1958    0.8846 H   0  0  0  0  0  0  0  0  0  0  0  0
  1  2  1  0
  1 18  1  0
  1 19  1  0
  1 20  1  0
  2  3  2  0
  2  4  1  0
  4  5  1  0
  4 17  1  0
  5  6  2  0
  5 10  1  0
  6  7  1  0
  6 16  1  0
  7  8  2  0
  7 15  1  0
  8  9  1  0
  8 13  1  0
  9 10  2  0
  9 12  1  0
 10 11  1  0
 13 14  1  0
M  END
$$$$

     RDKit          3D

 20 20  0  0  0  0  0  0  0  0999 V2000
   -3.9505   -0.5739    0.0002 C   0  0  0  0  0  0  0  0  0  0  0  0
   -2.6318    0.1767    0.0004 C   0  0  0  0  0  0  0  0  0  0  0  0
   -2.5585    1.3835    0.0021 O   0  0  0  0  0  0  0  0  0  0  0  0
   -1.5612   -0.6689   -0.0015 N   0  0  0  0  0  0  0  0  0  0  0  0
   -0.1933   -0.3661   -0.0010 C   0  0  0  0  0  0  0  0  0  0  0  0
    0.2949    0.9383   -0.0019 C   0  0  0  0  0  0  0  0  0  0  0  0
    1.6547    1.1695   -0.0012 C   0  0  0  0  0  0  0  0  0  0  0  0
    2.5546    0.1083    0.0002 C   0  0  0  0  0  0  0  0  0  0  0  0
    2.0699   -1.1936    0.0009 C   0  0  0  0  0  0  0  0  0  0  0  0
    0.7081   -1.4266    0.0003 C   0  0  0  0  0  0  0  0  0  0  0  0
    0.3430   -2.4446    0.0009 H   0  0  0  0  0  0  0  0  0  0  0  0
    2.7591   -2.0280    0.0020 H   0  0  0  0  0  0  0  0  0  0  0  0
    3.8878    0.3865    0.0009 O   0  0  0  0  0  0  0  0  0  0  0  0
    4.3933   -0.4350    0.0019 H   0  0  0  0  0  0  0  0  0  0  0  0
    2.0415    2.1756   -0.0018 H   0  0  0  0  0  0  0  0  0  0  0  0
   -0.3963    1.7637   -0.0029 H   0  0  0  0  0  0  0  0  0  0  0  0
   -1.7658   -1.6587   -0.0021 H   0  0  0  0  0  0  0  0  0  0  0  0
   -4.0262   -1.2026   -0.8848 H   0  0  0  0  0  0  0  0  0  0  0  0
   -4.7664    0.1425   -0.0006 H   0  0  0  0  0  0  0  0  0  0  0  0
   -4.0269   -1.2012    0.8860 H   0  0  0  0  0  0  0  0  0  0  0  0
  1  2  1  0
  1 18  1  0
  1 19  1  0
  1 20  1  0
  2  3  2  0
  2  4  1  0
  4  5  1  0
  4 17  1  0
  5  6  2  0
  5 10  1  0
  6  7  1  0
  6 16  1  0
  7  8  2  0
  7 15  1  0
  8  9  1  0
  8 13  1  0
  9 10  2  0
  9 12  1  0
 10 11  1  0
 13 14  1  0
M  END
$$$$

     RDKit          3D

 20 20  0  0  0  0  0  0  0  0999 V2000
    3.9668    0.5462    0.0013 C   0  0  0  0  0  0  0  0  0  0  0  0
    2.6289   -0.1680   -0.0012 C   0  0  0  0  0  0  0  0  0  0  0  0
    2.5462   -1.3759   -0.0032 O   0  0  0  0  0  0  0  0  0  0  0  0
    1.5601    0.6777    0.0012 N   0  0  0  0  0  0  0  0  0  0  0  0
    0.1924    0.3701    0.0007 C   0  0  0  0  0  0  0  0  0  0  0  0
   -0.2927   -0.9327    0.0021 C   0  0  0  0  0  0  0  0  0  0  0  0
   -1.6557   -1.1627    0.0018 C   0  0  0  0  0  0  0  0  0  0  0  0
   -2.5556   -0.1046   -0.0000 C   0  0  0  0  0  0  0  0  0  0  0  0
   -2.0717    1.2000   -0.0014 C   0  0  0  0  0  0  0  0  0  0  0  0
   -0.7126    1.4306   -0.0010 C   0  0  0  0  0  0  0  0  0  0  0  0
   -0.3467    2.4481   -0.0016 H   0  0  0  0  0  0  0  0  0  0  0  0
   -2.7750    2.0171   -0.0027 H   0  0  0  0  0  0  0  0  0  0  0  0
   -3.9043   -0.2943   -0.0005 O   0  0  0  0  0  0  0  0  0  0  0  0
   -4.0988   -1.2391    0.0004 H   0  0  0  0  0  0  0  0  0  0  0  0
   -2.0232   -2.1803    0.0030 H   0  0  0  0  0  0  0  0  0  0  0  0
    0.3974   -1.7590    0.0035 H   0  0  0  0  0  0  0  0  0  0  0  0
    1.7551    1.6690    0.0029 H   0  0  0  0  0  0  0  0  0  0  0  0
    4.5440    0.2054   -0.8555 H   0  0  0  0  0  0  0  0  0  0  0  0
    4.5118    0.2574    0.8976 H   0  0  0  0  0  0  0  0  0  0  0  0
    3.8727    1.6277   -0.0319 H   0  0  0  0  0  0  0  0  0  0  0  0
  1  2  1  0
  1 18  1  0
  1 19  1  0
  1 20  1  0
  2  3  2  0
  2  4  1  0
  4  5  1  0
  4 17  1  0
  5  6  2  0
  5 10  1  0
  6  7  1  0
  6 16  1  0
  7  8  2  0
  7 15  1  0
  8  9  1  0
  8 13  1  0
  9 10  2  0
  9 12  1  0
 10 11  1  0
 13 14  1  0
M  END
$$$$

     RDKit          3D

 20 20  0  0  0  0  0  0  0  0999 V2000
    3.9661    0.5524   -0.0056 C   0  0  0  0  0  0  0  0  0  0  0  0
    2.6298   -0.1653    0.0020 C   0  0  0  0  0  0  0  0  0  0  0  0
    2.5500   -1.3730    0.0086 O   0  0  0  0  0  0  0  0  0  0  0  0
    1.5591    0.6787   -0.0016 N   0  0  0  0  0  0  0  0  0  0  0  0
    0.1918    0.3696   -0.0006 C   0  0  0  0  0  0  0  0  0  0  0  0
   -0.7122    1.4280    0.0032 C   0  0  0  0  0  0  0  0  0  0  0  0
   -2.0735    1.1923    0.0035 C   0  0  0  0  0  0  0  0  0  0  0  0
   -2.5554   -0.1107   -0.0003 C   0  0  0  0  0  0  0  0  0  0  0  0
   -1.6531   -1.1698   -0.0041 C   0  0  0  0  0  0  0  0  0  0  0  0
   -0.2937   -0.9357   -0.0041 C   0  0  0  0  0  0  0  0  0  0  0  0
    0.3991   -1.7596   -0.0068 H   0  0  0  0  0  0  0  0  0  0  0  0
   -2.0375   -2.1768   -0.0071 H   0  0  0  0  0  0  0  0  0  0  0  0
   -3.8879   -0.3917   -0.0006 O   0  0  0  0  0  0  0  0  0  0  0  0
   -4.3951    0.4287    0.0024 H   0  0  0  0  0  0  0  0  0  0  0  0
   -2.7644    2.0252    0.0066 H   0  0  0  0  0  0  0  0  0  0  0  0
   -0.3496    2.4470    0.0060 H   0  0  0  0  0  0  0  0  0  0  0  0
    1.7534    1.6701   -0.0055 H   0  0  0  0  0  0  0  0  0  0  0  0
    3.8697    1.6337    0.0301 H   0  0  0  0  0  0  0  0  0  0  0  0
    4.5072    0.2670   -0.9053 H   0  0  0  0  0  0  0  0  0  0  0  0
    4.5486    0.2116    0.8474 H   0  0  0  0  0  0  0  0  0  0  0  0
  1  2  1  0
  1 18  1  0
  1 19  1  0
  1 20  1  0
  2  3  2  0
  2  4  1  0
  4  5  1  0
  4 17  1  0
  5  6  2  0
  5 10  1  0
  6  7  1  0
  6 16  1  0
  7  8  2  0
  7 15  1  0
  8  9  1  0
  8 13  1  0
  9 10  2  0
  9 12  1  0
 10 11  1  0
 13 14  1  0
M  END
$$$$

     RDKit          3D

 20 20  0  0  0  0  0  0  0  0999 V2000
   -2.4940   -1.3866    0.6955 C   0  0  0  0  0  0  0  0  0  0  0  0
   -2.6931   -0.0407    0.0455 C   0  0  0  0  0  0  0  0  0  0  0  0
   -3.7889    0.4438   -0.1431 O   0  0  0  0  0  0  0  0  0  0  0  0
   -1.5800    0.6646   -0.3111 N   0  0  0  0  0  0  0  0  0  0  0  0
   -0.2150    0.3692   -0.1928 C   0  0  0  0  0  0  0  0  0  0  0  0
    0.6557    1.3901    0.1803 C   0  0  0  0  0  0  0  0  0  0  0  0
    2.0120    1.1564    0.2939 C   0  0  0  0  0  0  0  0  0  0  0  0
    2.5279   -0.1078    0.0331 C   0  0  0  0  0  0  0  0  0  0  0  0
    1.6655   -1.1247   -0.3642 C   0  0  0  0  0  0  0  0  0  0  0  0
    0.3113   -0.8871   -0.4841 C   0  0  0  0  0  0  0  0  0  0  0  0
   -0.3334   -1.6778   -0.8293 H   0  0  0  0  0  0  0  0  0  0  0  0
    2.0779   -2.0956   -0.5865 H   0  0  0  0  0  0  0  0  0  0  0  0
    3.8537   -0.3889    0.1390 O   0  0  0  0  0  0  0  0  0  0  0  0
    4.3366    0.3997    0.4139 H   0  0  0  0  0  0  0  0  0  0  0  0
    2.6745    1.9597    0.5876 H   0  0  0  0  0  0  0  0  0  0  0  0
    0.2639    2.3758    0.3850 H   0  0  0  0  0  0  0  0  0  0  0  0
   -1.7923    1.6132   -0.5979 H   0  0  0  0  0  0  0  0  0  0  0  0
   -1.5747   -1.4188    1.2731 H   0  0  0  0  0  0  0  0  0  0  0  0
   -2.4705   -2.1635   -0.0659 H   0  0  0  0  0  0  0  0  0  0  0  0
   -3.3484   -1.5786    1.3399 H   0  0  0  0  0  0  0  0  0  0  0  0
  1  2  1  0
  1 18  1  0
  1 19  1  0
  1 20  1  0
  2  3  2  0
  2  4  1  0
  4  5  1  0
  4 17  1  0
  5  6  2  0
  5 10  1  0
  6  7  1  0
  6 16  1  0
  7  8  2  0
  7 15  1  0
  8  9  1  0
  8 13  1  0
  9 10  2  0
  9 12  1  0
 10 11  1  0
 13 14  1  0
M  END
$$$$
