
     RDKit          3D

 23 24  0  0  0  0  0  0  0  0999 V2000
   -1.3611   -2.9214    0.0980 C   0  0  0  0  0  0  0  0  0  0  0  0
   -0.6416   -1.6813    0.0490 N   0  0  0  0  0  0  0  0  0  0  0  0
    0.7049   -1.5387    0.0221 C   0  0  0  0  0  0  0  0  0  0  0  0
    1.0578   -0.2109   -0.0066 C   0  0  0  0  0  0  0  0  0  0  0  0
   -0.1704    0.5294   -0.0209 C   0  0  0  0  0  0  0  0  0  0  0  0
   -0.5131    1.8796   -0.1081 C   0  0  0  0  0  0  0  0  0  0  0  0
   -1.8452    2.2302   -0.1129 C   0  0  0  0  0  0  0  0  0  0  0  0
   -2.8544    1.2680   -0.0417 C   0  0  0  0  0  0  0  0  0  0  0  0
   -2.5517   -0.0749    0.0168 C   0  0  0  0  0  0  0  0  0  0  0  0
   -1.2098   -0.4348    0.0201 C   0  0  0  0  0  0  0  0  0  0  0  0
   -3.3311   -0.8212    0.0523 H   0  0  0  0  0  0  0  0  0  0  0  0
   -3.8869    1.5840   -0.0455 H   0  0  0  0  0  0  0  0  0  0  0  0
   -2.1205    3.2726   -0.1785 H   0  0  0  0  0  0  0  0  0  0  0  0
    0.2438    2.6444   -0.1977 H   0  0  0  0  0  0  0  0  0  0  0  0
    2.4565    0.2360   -0.0145 C   0  0  0  0  0  0  0  0  0  0  0  0
    3.3771   -0.4809   -0.3590 O   0  0  0  0  0  0  0  0  0  0  0  0
    2.6650    1.5185    0.3921 N   0  0  0  0  0  0  0  0  0  0  0  0
    1.9459    2.0418    0.8567 H   0  0  0  0  0  0  0  0  0  0  0  0
    3.6178    1.8329    0.4717 H   0  0  0  0  0  0  0  0  0  0  0  0
    1.3616   -2.3872    0.0378 H   0  0  0  0  0  0  0  0  0  0  0  0
   -1.9782   -2.9720    0.9987 H   0  0  0  0  0  0  0  0  0  0  0  0
   -2.0105   -3.0224   -0.7751 H   0  0  0  0  0  0  0  0  0  0  0  0
   -0.6529   -3.7476    0.1079 H   0  0  0  0  0  0  0  0  0  0  0  0
  1  2  1  0
  1 21  1  0
  1 22  1  0
  1 23  1  0
  2  3  1  0
  2 10  1  0
  3  4  2  0
  3 20  1  0
  4  5  1  0
  4 15  1  0
  5  6  1  0
  5 10  2  0
  6  7  2  0
  6 14  1  0
  7  8  1  0
  7 13  1  0
  8  9  2  0
  8 12  1  0
  9 10  1  0
  9 11  1  0
 15 16  2  0
 15 17  1  0
 17 18  1  0
 17 19  1  0
M  END
$$$$

     RDKit          3D

 23 24  0  0  0  0  0  0  0  0999 V2000
    1.3852    2.9266   -0.0293 C   0  0  0  0  0  0  0  0  0  0  0  0
    0.6557    1.6916   -0.0127 N   0  0  0  0  0  0  0  0  0  0  0  0
   -0.6957    1.5579   -0.0135 C   0  0  0  0  0  0  0  0  0  0  0  0
   -1.0544    0.2303   -0.0029 C   0  0  0  0  0  0  0  0  0  0  0  0
    0.1744   -0.5100    0.0038 C   0  0  0  0  0  0  0  0  0  0  0  0
    0.4762   -1.8700    0.0160 C   0  0  0  0  0  0  0  0  0  0  0  0
    1.8017   -2.2427    0.0234 C   0  0  0  0  0  0  0  0  0  0  0  0
    2.8272   -1.2931    0.0202 C   0  0  0  0  0  0  0  0  0  0  0  0
    2.5551    0.0583    0.0087 C   0  0  0  0  0  0  0  0  0  0  0  0
    1.2192    0.4409    0.0002 C   0  0  0  0  0  0  0  0  0  0  0  0
    3.3505    0.7888    0.0064 H   0  0  0  0  0  0  0  0  0  0  0  0
    3.8546   -1.6269    0.0268 H   0  0  0  0  0  0  0  0  0  0  0  0
    2.0626   -3.2907    0.0317 H   0  0  0  0  0  0  0  0  0  0  0  0
   -0.3224   -2.5937    0.0160 H   0  0  0  0  0  0  0  0  0  0  0  0
   -2.3913   -0.3708   -0.0067 C   0  0  0  0  0  0  0  0  0  0  0  0
   -2.5935   -1.5662   -0.0984 O   0  0  0  0  0  0  0  0  0  0  0  0
   -3.4315    0.5075    0.0840 N   0  0  0  0  0  0  0  0  0  0  0  0
   -3.3038    1.4856    0.2593 H   0  0  0  0  0  0  0  0  0  0  0  0
   -4.3616    0.1271    0.1279 H   0  0  0  0  0  0  0  0  0  0  0  0
   -1.3119    2.4387   -0.0342 H   0  0  0  0  0  0  0  0  0  0  0  0
    2.0164    3.0103    0.8590 H   0  0  0  0  0  0  0  0  0  0  0  0
    2.0235    2.9817   -0.9147 H   0  0  0  0  0  0  0  0  0  0  0  0
    0.6877    3.7622   -0.0458 H   0  0  0  0  0  0  0  0  0  0  0  0
  1  2  1  0
  1 21  1  0
  1 22  1  0
  1 23  1  0
  2  3  1  0
  2 10  1  0
  3  4  2  0
  3 20  1  0
  4  5  1  0
  4 15  1  0
  5  6  1  0
  5 10  2  0
  6  7  2  0
  6 14  1  0
  7  8  1  0
  7 13  1  0
  8  9  2  0
  8 12  1  0
  9 10  1  0
  9 11  1  0
 15 16  2  0
 15 17  1  0
 17 18  1  0
 17 19  1  0
M  END
$$$$
