
     RDKit          3D

 21 22  0  0  0  0  0  0  0  0999 V2000
    2.8374    1.3459    0.0046 O   0  0  0  0  0  0  0  0  0  0  0  0
    2.5138    0.1805    0.0005 C   0  0  0  0  0  0  0  0  0  0  0  0
    3.4538   -0.7859   -0.0044 O   0  0  0  0  0  0  0  0  0  0  0  0
    4.3305   -0.3714   -0.0037 H   0  0  0  0  0  0  0  0  0  0  0  0
    1.1419   -0.3537    0.0002 C   0  0  0  0  0  0  0  0  0  0  0  0
    0.9532   -1.7254    0.0006 C   0  0  0  0  0  0  0  0  0  0  0  0
   -0.3105   -2.3081    0.0008 C   0  0  0  0  0  0  0  0  0  0  0  0
   -1.4338   -1.5108    0.0005 C   0  0  0  0  0  0  0  0  0  0  0  0
   -1.2840   -0.0939   -0.0001 C   0  0  0  0  0  0  0  0  0  0  0  0
   -2.4330    0.6119   -0.0004 N   0  0  0  0  0  0  0  0  0  0  0  0
   -2.3635    1.9152   -0.0009 C   0  0  0  0  0  0  0  0  0  0  0  0
   -1.1478    2.6149   -0.0011 C   0  0  0  0  0  0  0  0  0  0  0  0
    0.0302    1.9135   -0.0006 C   0  0  0  0  0  0  0  0  0  0  0  0
    0.0018    0.5017   -0.0000 C   0  0  0  0  0  0  0  0  0  0  0  0
    0.9799    2.4228   -0.0007 H   0  0  0  0  0  0  0  0  0  0  0  0
   -1.1500    3.6937   -0.0016 H   0  0  0  0  0  0  0  0  0  0  0  0
   -3.3099    2.4406   -0.0011 H   0  0  0  0  0  0  0  0  0  0  0  0
   -2.6705   -2.0211    0.0006 O   0  0  0  0  0  0  0  0  0  0  0  0
   -3.2841   -1.2620    0.0002 H   0  0  0  0  0  0  0  0  0  0  0  0
   -0.4218   -3.3804    0.0014 H   0  0  0  0  0  0  0  0  0  0  0  0
    1.8201   -2.3670    0.0009 H   0  0  0  0  0  0  0  0  0  0  0  0
  1  2  2  0
  2  3  1  0
  2  5  1  0
  3  4  1  0
  5  6  2  0
  5 14  1  0
  6  7  1  0
  6 21  1  0
  7  8  2  0
  7 20  1  0
  8  9  1  0
  8 18  1  0
  9 10  1  0
  9 14  2  0
 10 11  2  0
 11 12  1  0
 11 17  1  0
 12 13  2  0
 12 16  1  0
 13 14  1  0
 13 15  1  0
 18 19  1  0
M  END
$$$$

     RDKit          3D

 21 22  0  0  0  0  0  0  0  0999 V2000
    3.4627    0.7870   -0.2177 O   0  0  0  0  0  0  0  0  0  0  0  0
    2.5576    0.0152   -0.0030 C   0  0  0  0  0  0  0  0  0  0  0  0
    2.8144   -1.2719    0.2974 O   0  0  0  0  0  0  0  0  0  0  0  0
    3.7758   -1.4050    0.3055 H   0  0  0  0  0  0  0  0  0  0  0  0
    1.1351    0.4059   -0.0153 C   0  0  0  0  0  0  0  0  0  0  0  0
    0.9000    1.7711   -0.0118 C   0  0  0  0  0  0  0  0  0  0  0  0
   -0.3781    2.3179    0.0129 C   0  0  0  0  0  0  0  0  0  0  0  0
   -1.4731    1.4826    0.0308 C   0  0  0  0  0  0  0  0  0  0  0  0
   -1.2764    0.0711    0.0062 C   0  0  0  0  0  0  0  0  0  0  0  0
   -2.4051   -0.6659    0.0069 N   0  0  0  0  0  0  0  0  0  0  0  0
   -2.3045   -1.9660   -0.0321 C   0  0  0  0  0  0  0  0  0  0  0  0
   -1.0713   -2.6311   -0.0884 C   0  0  0  0  0  0  0  0  0  0  0  0
    0.0870   -1.8977   -0.0855 C   0  0  0  0  0  0  0  0  0  0  0  0
    0.0278   -0.4883   -0.0228 C   0  0  0  0  0  0  0  0  0  0  0  0
    1.0422   -2.3929   -0.1315 H   0  0  0  0  0  0  0  0  0  0  0  0
   -1.0443   -3.7086   -0.1367 H   0  0  0  0  0  0  0  0  0  0  0  0
   -3.2365   -2.5161   -0.0266 H   0  0  0  0  0  0  0  0  0  0  0  0
   -2.7262    1.9497    0.0662 O   0  0  0  0  0  0  0  0  0  0  0  0
   -3.3135    1.1700    0.0664 H   0  0  0  0  0  0  0  0  0  0  0  0
   -0.5231    3.3858    0.0228 H   0  0  0  0  0  0  0  0  0  0  0  0
    1.7586    2.4260   -0.0206 H   0  0  0  0  0  0  0  0  0  0  0  0
  1  2  2  0
  2  3  1  0
  2  5  1  0
  3  4  1  0
  5  6  2  0
  5 14  1  0
  6  7  1  0
  6 21  1  0
  7  8  2  0
  7 20  1  0
  8  9  1  0
  8 18  1  0
  9 10  1  0
  9 14  2  0
 10 11  2  0
 11 12  1  0
 11 17  1  0
 12 13  2  0
 12 16  1  0
 13 14  1  0
 13 15  1  0
 18 19  1  0
M  END
$$$$
