
     RDKit          3D

 24 23  0  0  0  0  0  0  0  0999 V2000
    2.6038    0.7539   -0.6031 C   0  0  0  0  0  0  0  0  0  0  0  0
    1.5451   -0.1331   -0.0875 N   0  0  1  0  0  0  0  0  0  0  0  0
    0.6284    0.6364    0.6928 N   0  0  0  0  0  0  0  0  0  0  0  0
   -0.2420    1.5713   -0.0238 C   0  0  0  0  0  0  0  0  0  0  0  0
   -1.7066    1.2642    0.3084 C   0  0  0  0  0  0  0  0  0  0  0  0
   -1.8965    1.4929    1.3581 H   0  0  0  0  0  0  0  0  0  0  0  0
   -2.3730    1.8538   -0.3191 H   0  0  0  0  0  0  0  0  0  0  0  0
   -1.9836   -0.2637    0.0795 C   0  0  0  0  0  0  0  0  0  0  0  0
   -1.2600   -1.0267    0.7939 O   0  0  0  0  0  0  0  0  0  0  0  0
   -2.7852   -0.5969   -0.7761 O   0  0  0  0  0  0  0  0  0  0  0  0
    0.0259    2.5900    0.2887 H   0  0  0  0  0  0  0  0  0  0  0  0
   -0.1111    1.5143   -1.1095 H   0  0  0  0  0  0  0  0  0  0  0  0
   -0.0852   -0.0995    1.0535 H   0  0  0  0  0  0  0  0  0  0  0  0
    0.9431   -0.9113   -1.1994 C   0  0  0  0  0  0  0  0  0  0  0  0
    0.6044   -0.2530   -1.9954 H   0  0  0  0  0  0  0  0  0  0  0  0
    0.0784   -1.4537   -0.8073 H   0  0  0  0  0  0  0  0  0  0  0  0
    1.6748   -1.6086   -1.5994 H   0  0  0  0  0  0  0  0  0  0  0  0
    2.1253   -1.0915    0.8730 C   0  0  0  0  0  0  0  0  0  0  0  0
    2.9308   -1.6580    0.4111 H   0  0  0  0  0  0  0  0  0  0  0  0
    2.4986   -0.5420    1.7347 H   0  0  0  0  0  0  0  0  0  0  0  0
    1.3379   -1.7668    1.2053 H   0  0  0  0  0  0  0  0  0  0  0  0
    2.1744    1.4778   -1.2925 H   0  0  0  0  0  0  0  0  0  0  0  0
    3.0465    1.2920    0.2330 H   0  0  0  0  0  0  0  0  0  0  0  0
    3.3670    0.1748   -1.1189 H   0  0  0  0  0  0  0  0  0  0  0  0
  1  2  1  0
  1 22  1  0
  1 23  1  0
  1 24  1  0
  2  3  1  1
  2 14  1  0
  2 18  1  0
  3  4  1  0
  3 13  1  0
  4  5  1  0
  4 11  1  0
  4 12  1  0
  5  6  1  0
  5  7  1  0
  5  8  1  0
  8  9  2  0
  8 10  1  0
 14 15  1  0
 14 16  1  0
 14 17  1  0
 18 19  1  0
 18 20  1  0
 18 21  1  0
M  CHG  2   2   1  10  -1
M  END
$$$$

     RDKit          3D

 24 23  0  0  0  0  0  0  0  0999 V2000
    0.7931    0.4799   -1.4088 C   0  0  0  0  0  0  0  0  0  0  0  0
    1.3934    0.1962   -0.0838 N   0  0  1  0  0  0  0  0  0  0  0  0
    0.7003   -0.7243    0.7816 N   0  0  0  0  0  0  0  0  0  0  0  0
   -0.1209   -1.7507    0.1475 C   0  0  0  0  0  0  0  0  0  0  0  0
   -1.5493   -1.2896   -0.2158 C   0  0  0  0  0  0  0  0  0  0  0  0
   -1.7718   -1.4659   -1.2687 H   0  0  0  0  0  0  0  0  0  0  0  0
   -2.2768   -1.8404    0.3803 H   0  0  0  0  0  0  0  0  0  0  0  0
   -1.8181    0.2371    0.0757 C   0  0  0  0  0  0  0  0  0  0  0  0
   -1.3751    0.6717    1.1713 O   0  0  0  0  0  0  0  0  0  0  0  0
   -2.3575    0.8848   -0.8163 O   0  0  0  0  0  0  0  0  0  0  0  0
    0.3975   -2.1719   -0.7195 H   0  0  0  0  0  0  0  0  0  0  0  0
   -0.1656   -2.5402    0.9033 H   0  0  0  0  0  0  0  0  0  0  0  0
   -0.0494   -0.1557    1.2909 H   0  0  0  0  0  0  0  0  0  0  0  0
    2.7424   -0.3690   -0.2878 C   0  0  0  0  0  0  0  0  0  0  0  0
    2.6615   -1.3151   -0.8193 H   0  0  0  0  0  0  0  0  0  0  0  0
    3.1918   -0.5583    0.6847 H   0  0  0  0  0  0  0  0  0  0  0  0
    3.3654    0.3160   -0.8590 H   0  0  0  0  0  0  0  0  0  0  0  0
    1.4927    1.4661    0.6609 C   0  0  0  0  0  0  0  0  0  0  0  0
    2.0777    2.1924    0.1015 H   0  0  0  0  0  0  0  0  0  0  0  0
    0.4817    1.8457    0.8316 H   0  0  0  0  0  0  0  0  0  0  0  0
    1.9571    1.2756    1.6263 H   0  0  0  0  0  0  0  0  0  0  0  0
    1.4104    1.2087   -1.9296 H   0  0  0  0  0  0  0  0  0  0  0  0
    0.7394   -0.4282   -2.0038 H   0  0  0  0  0  0  0  0  0  0  0  0
   -0.2143    0.8825   -1.2970 H   0  0  0  0  0  0  0  0  0  0  0  0
  1  2  1  0
  1 22  1  0
  1 23  1  0
  1 24  1  0
  2  3  1  1
  2 14  1  0
  2 18  1  0
  3  4  1  0
  3 13  1  0
  4  5  1  0
  4 11  1  0
  4 12  1  0
  5  6  1  0
  5  7  1  0
  5  8  1  0
  8  9  2  0
  8 10  1  0
 14 15  1  0
 14 16  1  0
 14 17  1  0
 18 19  1  0
 18 20  1  0
 18 21  1  0
M  CHG  2   2   1  10  -1
M  END
$$$$

     RDKit          3D

 24 23  0  0  0  0  0  0  0  0999 V2000
   -1.0583   -0.3553   -1.4355 C   0  0  0  0  0  0  0  0  0  0  0  0
   -1.5955   -0.1393   -0.0738 N   0  0  1  0  0  0  0  0  0  0  0  0
   -0.6618    0.3842    0.8798 N   0  0  0  0  0  0  0  0  0  0  0  0
    0.1570    1.5269    0.4802 C   0  0  0  0  0  0  0  0  0  0  0  0
    1.4291    1.1823   -0.3092 C   0  0  0  0  0  0  0  0  0  0  0  0
    1.2528    1.2015   -1.3883 H   0  0  0  0  0  0  0  0  0  0  0  0
    2.1990    1.9244   -0.1013 H   0  0  0  0  0  0  0  0  0  0  0  0
    2.0687   -0.2342   -0.0005 C   0  0  0  0  0  0  0  0  0  0  0  0
    1.2540   -1.1475    0.3356 O   0  0  0  0  0  0  0  0  0  0  0  0
    3.2678   -0.3371   -0.1661 O   0  0  0  0  0  0  0  0  0  0  0  0
   -0.4464    2.2796   -0.0441 H   0  0  0  0  0  0  0  0  0  0  0  0
    0.4507    1.9637    1.4391 H   0  0  0  0  0  0  0  0  0  0  0  0
    0.1040   -0.3869    0.9294 H   0  0  0  0  0  0  0  0  0  0  0  0
   -2.7758    0.7431   -0.1280 C   0  0  0  0  0  0  0  0  0  0  0  0
   -3.1525    0.8840    0.8831 H   0  0  0  0  0  0  0  0  0  0  0  0
   -3.5482    0.3052   -0.7566 H   0  0  0  0  0  0  0  0  0  0  0  0
   -2.4939    1.7133   -0.5316 H   0  0  0  0  0  0  0  0  0  0  0  0
   -1.9865   -1.4511    0.4782 C   0  0  0  0  0  0  0  0  0  0  0  0
   -1.1106   -2.0996    0.4769 H   0  0  0  0  0  0  0  0  0  0  0  0
   -2.3159   -1.3149    1.5060 H   0  0  0  0  0  0  0  0  0  0  0  0
   -2.7825   -1.8952   -0.1156 H   0  0  0  0  0  0  0  0  0  0  0  0
   -1.7683   -0.9259   -2.0304 H   0  0  0  0  0  0  0  0  0  0  0  0
   -0.8675    0.5988   -1.9201 H   0  0  0  0  0  0  0  0  0  0  0  0
   -0.1216   -0.9100   -1.3368 H   0  0  0  0  0  0  0  0  0  0  0  0
  1  2  1  0
  1 22  1  0
  1 23  1  0
  1 24  1  0
  2  3  1  1
  2 14  1  0
  2 18  1  0
  3  4  1  0
  3 13  1  0
  4  5  1  0
  4 11  1  0
  4 12  1  0
  5  6  1  0
  5  7  1  0
  5  8  1  0
  8  9  2  0
  8 10  1  0
 14 15  1  0
 14 16  1  0
 14 17  1  0
 18 19  1  0
 18 20  1  0
 18 21  1  0
M  CHG  2   2   1  10  -1
M  END
$$$$

     RDKit          3D

 24 23  0  0  0  0  0  0  0  0999 V2000
   -2.7687   -0.6373    0.2720 C   0  0  0  0  0  0  0  0  0  0  0  0
   -1.5412    0.1662    0.1112 N   0  0  1  0  0  0  0  0  0  0  0  0
   -0.7201   -0.4534   -0.8864 N   0  0  0  0  0  0  0  0  0  0  0  0
    0.1001   -1.5914   -0.4800 C   0  0  0  0  0  0  0  0  0  0  0  0
    1.4333   -1.2349    0.1987 C   0  0  0  0  0  0  0  0  0  0  0  0
    1.3789   -1.3518    1.2841 H   0  0  0  0  0  0  0  0  0  0  0  0
    2.2105   -1.9165   -0.1463 H   0  0  0  0  0  0  0  0  0  0  0  0
    2.0084    0.2222   -0.0419 C   0  0  0  0  0  0  0  0  0  0  0  0
    1.2819    1.0361   -0.6864 O   0  0  0  0  0  0  0  0  0  0  0  0
    3.0887    0.4496    0.4697 O   0  0  0  0  0  0  0  0  0  0  0  0
   -0.4813   -2.2962    0.1291 H   0  0  0  0  0  0  0  0  0  0  0  0
    0.3074   -2.0891   -1.4314 H   0  0  0  0  0  0  0  0  0  0  0  0
    0.0729    0.2773   -1.0782 H   0  0  0  0  0  0  0  0  0  0  0  0
   -1.8856    1.4858   -0.4528 C   0  0  0  0  0  0  0  0  0  0  0  0
   -2.3066    1.3433   -1.4456 H   0  0  0  0  0  0  0  0  0  0  0  0
   -0.9697    2.0698   -0.5458 H   0  0  0  0  0  0  0  0  0  0  0  0
   -2.5977    2.0025    0.1868 H   0  0  0  0  0  0  0  0  0  0  0  0
   -0.9106    0.3789    1.4335 C   0  0  0  0  0  0  0  0  0  0  0  0
   -0.7086   -0.5761    1.9114 H   0  0  0  0  0  0  0  0  0  0  0  0
    0.0282    0.9135    1.2895 H   0  0  0  0  0  0  0  0  0  0  0  0
   -1.5720    0.9657    2.0678 H   0  0  0  0  0  0  0  0  0  0  0  0
   -3.4658   -0.1400    0.9430 H   0  0  0  0  0  0  0  0  0  0  0  0
   -3.2248   -0.7743   -0.7063 H   0  0  0  0  0  0  0  0  0  0  0  0
   -2.5166   -1.6153    0.6766 H   0  0  0  0  0  0  0  0  0  0  0  0
  1  2  1  0
  1 22  1  0
  1 23  1  0
  1 24  1  0
  2  3  1  6
  2 14  1  0
  2 18  1  0
  3  4  1  0
  3 13  1  0
  4  5  1  0
  4 11  1  0
  4 12  1  0
  5  6  1  0
  5  7  1  0
  5  8  1  0
  8  9  2  0
  8 10  1  0
 14 15  1  0
 14 16  1  0
 14 17  1  0
 18 19  1  0
 18 20  1  0
 18 21  1  0
M  CHG  2   2   1  10  -1
M  END
$$$$

     RDKit          3D

 24 23  0  0  0  0  0  0  0  0999 V2000
   -0.9352   -0.3613   -1.4387 C   0  0  0  0  0  0  0  0  0  0  0  0
   -1.5505   -0.1621   -0.1072 N   0  0  1  0  0  0  0  0  0  0  0  0
   -0.7141    0.4418    0.8872 N   0  0  0  0  0  0  0  0  0  0  0  0
    0.1058    1.5815    0.4840 C   0  0  0  0  0  0  0  0  0  0  0  0
    1.4331    1.2282   -0.2072 C   0  0  0  0  0  0  0  0  0  0  0  0
    1.3650    1.3356   -1.2929 H   0  0  0  0  0  0  0  0  0  0  0  0
    2.2097    1.9178    0.1231 H   0  0  0  0  0  0  0  0  0  0  0  0
    2.0192   -0.2243    0.0373 C   0  0  0  0  0  0  0  0  0  0  0  0
    1.2750   -1.0578    0.6351 O   0  0  0  0  0  0  0  0  0  0  0  0
    3.1240   -0.4291   -0.4289 O   0  0  0  0  0  0  0  0  0  0  0  0
   -0.4787    2.2925   -0.1150 H   0  0  0  0  0  0  0  0  0  0  0  0
    0.3222    2.0713    1.4375 H   0  0  0  0  0  0  0  0  0  0  0  0
    0.0764   -0.2958    1.0571 H   0  0  0  0  0  0  0  0  0  0  0  0
   -2.7769    0.6476   -0.2429 C   0  0  0  0  0  0  0  0  0  0  0  0
   -2.5279    1.6275   -0.6448 H   0  0  0  0  0  0  0  0  0  0  0  0
   -3.2165    0.7795    0.7437 H   0  0  0  0  0  0  0  0  0  0  0  0
   -3.4869    0.1575   -0.9057 H   0  0  0  0  0  0  0  0  0  0  0  0
   -1.8927   -1.4874    0.4447 C   0  0  0  0  0  0  0  0  0  0  0  0
   -2.6150   -1.9934   -0.1921 H   0  0  0  0  0  0  0  0  0  0  0  0
   -0.9779   -2.0758    0.5183 H   0  0  0  0  0  0  0  0  0  0  0  0
   -2.3004   -1.3559    1.4446 H   0  0  0  0  0  0  0  0  0  0  0  0
    0.0053   -0.8969   -1.3081 H   0  0  0  0  0  0  0  0  0  0  0  0
   -1.6032   -0.9424   -2.0713 H   0  0  0  0  0  0  0  0  0  0  0  0
   -0.7392    0.5985   -1.9096 H   0  0  0  0  0  0  0  0  0  0  0  0
  1  2  1  0
  1 22  1  0
  1 23  1  0
  1 24  1  0
  2  3  1  1
  2 14  1  0
  2 18  1  0
  3  4  1  0
  3 13  1  0
  4  5  1  0
  4 11  1  0
  4 12  1  0
  5  6  1  0
  5  7  1  0
  5  8  1  0
  8  9  2  0
  8 10  1  0
 14 15  1  0
 14 16  1  0
 14 17  1  0
 18 19  1  0
 18 20  1  0
 18 21  1  0
M  CHG  2   2   1  10  -1
M  END
$$$$

     RDKit          3D

 24 23  0  0  0  0  0  0  0  0999 V2000
   -1.0051    1.3115   -0.8454 C   0  0  0  0  0  0  0  0  0  0  0  0
   -1.4225    0.1730    0.0004 N   0  0  1  0  0  0  0  0  0  0  0  0
   -0.9230   -1.0971   -0.4758 N   0  0  0  0  0  0  0  0  0  0  0  0
    0.2879   -1.7175    0.0671 C   0  0  0  0  0  0  0  0  0  0  0  0
    1.6088   -1.1939   -0.4830 C   0  0  0  0  0  0  0  0  0  0  0  0
    2.4179   -1.8193   -0.1074 H   0  0  0  0  0  0  0  0  0  0  0  0
    1.6181   -1.2140   -1.5752 H   0  0  0  0  0  0  0  0  0  0  0  0
    1.8444    0.2798    0.0201 C   0  0  0  0  0  0  0  0  0  0  0  0
    1.8061    0.4327    1.2510 O   0  0  0  0  0  0  0  0  0  0  0  0
    1.9067    1.1497   -0.8611 O   0  0  0  0  0  0  0  0  0  0  0  0
    0.2941   -1.6346    1.1528 H   0  0  0  0  0  0  0  0  0  0  0  0
    0.1589   -2.7763   -0.1877 H   0  0  0  0  0  0  0  0  0  0  0  0
   -0.8046   -1.0172   -1.4829 H   0  0  0  0  0  0  0  0  0  0  0  0
   -1.0699    0.4358    1.4069 C   0  0  0  0  0  0  0  0  0  0  0  0
    0.0243    0.5547    1.5168 H   0  0  0  0  0  0  0  0  0  0  0  0
   -1.4105   -0.3897    2.0280 H   0  0  0  0  0  0  0  0  0  0  0  0
   -1.5562    1.3530    1.7284 H   0  0  0  0  0  0  0  0  0  0  0  0
   -2.8927    0.0355   -0.0918 C   0  0  0  0  0  0  0  0  0  0  0  0
   -3.3796    0.9521    0.2339 H   0  0  0  0  0  0  0  0  0  0  0  0
   -3.1777   -0.1785   -1.1203 H   0  0  0  0  0  0  0  0  0  0  0  0
   -3.2143   -0.7941    0.5345 H   0  0  0  0  0  0  0  0  0  0  0  0
   -1.4110    2.2368   -0.4446 H   0  0  0  0  0  0  0  0  0  0  0  0
    0.0948    1.3965   -0.8812 H   0  0  0  0  0  0  0  0  0  0  0  0
   -1.3776    1.1669   -1.8588 H   0  0  0  0  0  0  0  0  0  0  0  0
  1  2  1  0
  1 22  1  0
  1 23  1  0
  1 24  1  0
  2  3  1  6
  2 14  1  0
  2 18  1  0
  3  4  1  0
  3 13  1  0
  4  5  1  0
  4 11  1  0
  4 12  1  0
  5  6  1  0
  5  7  1  0
  5  8  1  0
  8  9  2  0
  8 10  1  0
 14 15  1  0
 14 16  1  0
 14 17  1  0
 18 19  1  0
 18 20  1  0
 18 21  1  0
M  CHG  2   2   1  10  -1
M  END
$$$$
