
     RDKit          3D

 26 27  0  0  0  0  0  0  0  0999 V2000
    5.0546    1.5557   -0.9437 C   0  0  0  0  0  0  0  0  0  0  0  0
    4.9926    0.7982    0.3788 C   0  0  0  0  0  0  0  0  0  0  0  0
    4.4920    1.3939    1.1511 H   0  0  0  0  0  0  0  0  0  0  0  0
    6.0048    0.5693    0.7227 H   0  0  0  0  0  0  0  0  0  0  0  0
    4.3757   -0.4707    0.2508 O   0  0  0  0  0  0  0  0  0  0  0  0
    3.0312   -0.5693    0.1564 C   0  0  0  0  0  0  0  0  0  0  0  0
    2.1378    0.4895    0.2558 C   0  0  0  0  0  0  0  0  0  0  0  0
    0.7831    0.2139    0.1567 C   0  0  0  0  0  0  0  0  0  0  0  0
    0.3003   -1.0980   -0.0422 C   0  0  0  0  0  0  0  0  0  0  0  0
    1.2108   -2.1512   -0.1391 C   0  0  0  0  0  0  0  0  0  0  0  0
    2.5506   -1.8801   -0.0402 C   0  0  0  0  0  0  0  0  0  0  0  0
    3.2820   -2.6692   -0.1091 H   0  0  0  0  0  0  0  0  0  0  0  0
    0.8491   -3.1550   -0.2898 H   0  0  0  0  0  0  0  0  0  0  0  0
   -1.0599   -1.1874   -0.1199 N   0  0  0  0  0  0  0  0  0  0  0  0
   -1.6117   -0.0405    0.0070 C   0  0  0  0  0  0  0  0  0  0  0  0
   -0.5605    1.3243    0.2398 S   0  0  0  0  0  0  0  0  0  0  0  0
   -3.3815    0.2063   -0.0484 S   0  0  2  0  0  0  0  0  0  0  0  0
   -3.6722    0.9765   -1.2142 O   0  0  0  0  0  0  0  0  0  0  0  0
   -3.7916    0.6791    1.2342 O   0  0  0  0  0  0  0  0  0  0  0  0
   -3.9934   -1.3140   -0.2634 N   0  0  0  0  0  0  0  0  0  0  0  0
   -3.7257   -1.7188   -1.1447 H   0  0  0  0  0  0  0  0  0  0  0  0
   -3.8055   -1.9222    0.5158 H   0  0  0  0  0  0  0  0  0  0  0  0
    2.4583    1.5058    0.4100 H   0  0  0  0  0  0  0  0  0  0  0  0
    5.5814    0.9597   -1.6845 H   0  0  0  0  0  0  0  0  0  0  0  0
    4.0576    1.7687   -1.3210 H   0  0  0  0  0  0  0  0  0  0  0  0
    5.5857    2.4927   -0.8023 H   0  0  0  0  0  0  0  0  0  0  0  0
  1  2  1  0
  1 24  1  0
  1 25  1  0
  1 26  1  0
  2  3  1  0
  2  4  1  0
  2  5  1  0
  5  6  1  0
  6  7  2  0
  6 11  1  0
  7  8  1  0
  7 23  1  0
  8  9  2  0
  8 16  1  0
  9 10  1  0
  9 14  1  0
 10 11  2  0
 10 13  1  0
 11 12  1  0
 14 15  2  0
 15 16  1  0
 15 17  1  0
 17 18  2  0
 17 19  2  0
 17 20  1  6
 20 21  1  0
 20 22  1  0
M  END
$$$$

     RDKit          3D

 26 27  0  0  0  0  0  0  0  0999 V2000
    6.3776    0.8314    0.0011 C   0  0  0  0  0  0  0  0  0  0  0  0
    4.8651    0.9842   -0.0003 C   0  0  0  0  0  0  0  0  0  0  0  0
    4.5380    1.5324   -0.8940 H   0  0  0  0  0  0  0  0  0  0  0  0
    4.5366    1.5340    0.8918 H   0  0  0  0  0  0  0  0  0  0  0  0
    4.3031   -0.3170    0.0003 O   0  0  0  0  0  0  0  0  0  0  0  0
    2.9612   -0.4597   -0.0001 C   0  0  0  0  0  0  0  0  0  0  0  0
    2.0532    0.5914   -0.0006 C   0  0  0  0  0  0  0  0  0  0  0  0
    0.7010    0.2858   -0.0007 C   0  0  0  0  0  0  0  0  0  0  0  0
    0.2382   -1.0483   -0.0005 C   0  0  0  0  0  0  0  0  0  0  0  0
    1.1646   -2.0923   -0.0001 C   0  0  0  0  0  0  0  0  0  0  0  0
    2.5017   -1.7923    0.0002 C   0  0  0  0  0  0  0  0  0  0  0  0
    3.2456   -2.5727    0.0006 H   0  0  0  0  0  0  0  0  0  0  0  0
    0.8162   -3.1120    0.0001 H   0  0  0  0  0  0  0  0  0  0  0  0
   -1.1219   -1.1683   -0.0005 N   0  0  0  0  0  0  0  0  0  0  0  0
   -1.6921   -0.0233   -0.0008 C   0  0  0  0  0  0  0  0  0  0  0  0
   -0.6609    1.3762   -0.0011 S   0  0  0  0  0  0  0  0  0  0  0  0
   -3.4682    0.1833    0.0011 S   0  0  2  0  0  0  0  0  0  0  0  0
   -3.8319    0.8083   -1.2294 O   0  0  0  0  0  0  0  0  0  0  0  0
   -3.8300    0.7927    1.2398 O   0  0  0  0  0  0  0  0  0  0  0  0
   -4.0522   -1.3631   -0.0085 N   0  0  0  0  0  0  0  0  0  0  0  0
   -3.8099   -1.8745    0.8234 H   0  0  0  0  0  0  0  0  0  0  0  0
   -3.8181   -1.8607   -0.8511 H   0  0  0  0  0  0  0  0  0  0  0  0
    2.3658    1.6217   -0.0009 H   0  0  0  0  0  0  0  0  0  0  0  0
    6.6947    0.2845    0.8846 H   0  0  0  0  0  0  0  0  0  0  0  0
    6.6959    0.2809   -0.8797 H   0  0  0  0  0  0  0  0  0  0  0  0
    6.8471    1.8106   -0.0006 H   0  0  0  0  0  0  0  0  0  0  0  0
  1  2  1  0
  1 24  1  0
  1 25  1  0
  1 26  1  0
  2  3  1  0
  2  4  1  0
  2  5  1  0
  5  6  1  0
  6  7  2  0
  6 11  1  0
  7  8  1  0
  7 23  1  0
  8  9  2  0
  8 16  1  0
  9 10  1  0
  9 14  1  0
 10 11  2  0
 10 13  1  0
 11 12  1  0
 14 15  2  0
 15 16  1  0
 15 17  1  0
 17 18  2  0
 17 19  2  0
 17 20  1  6
 20 21  1  0
 20 22  1  0
M  END
$$$$

     RDKit          3D

 26 27  0  0  0  0  0  0  0  0999 V2000
    5.7095    0.5777   -1.0853 C   0  0  0  0  0  0  0  0  0  0  0  0
    5.3819   -0.0029    0.2868 C   0  0  0  0  0  0  0  0  0  0  0  0
    5.3004    0.7887    1.0411 H   0  0  0  0  0  0  0  0  0  0  0  0
    6.1733   -0.6908    0.5962 H   0  0  0  0  0  0  0  0  0  0  0  0
    4.2152   -0.8055    0.2735 O   0  0  0  0  0  0  0  0  0  0  0  0
    2.9880   -0.2371    0.2291 C   0  0  0  0  0  0  0  0  0  0  0  0
    1.9276   -1.1357    0.1142 C   0  0  0  0  0  0  0  0  0  0  0  0
    0.6385   -0.6461    0.0818 C   0  0  0  0  0  0  0  0  0  0  0  0
    0.3777    0.7430    0.1620 C   0  0  0  0  0  0  0  0  0  0  0  0
    1.4439    1.6284    0.2789 C   0  0  0  0  0  0  0  0  0  0  0  0
    2.7310    1.1405    0.3106 C   0  0  0  0  0  0  0  0  0  0  0  0
    3.5434    1.8426    0.4058 H   0  0  0  0  0  0  0  0  0  0  0  0
    1.2503    2.6869    0.3427 H   0  0  0  0  0  0  0  0  0  0  0  0
   -0.9485    1.0675    0.1143 N   0  0  0  0  0  0  0  0  0  0  0  0
   -1.6794    0.0235    0.0062 C   0  0  0  0  0  0  0  0  0  0  0  0
   -0.8699   -1.5143   -0.0546 S   0  0  0  0  0  0  0  0  0  0  0  0
   -3.4647    0.0944   -0.0834 S   0  0  2  0  0  0  0  0  0  0  0  0
   -3.9825   -0.5521    1.0786 O   0  0  0  0  0  0  0  0  0  0  0  0
   -3.8509   -0.3596   -1.3800 O   0  0  0  0  0  0  0  0  0  0  0  0
   -3.8067    1.7088    0.0244 N   0  0  0  0  0  0  0  0  0  0  0  0
   -3.5407    2.1027    0.9113 H   0  0  0  0  0  0  0  0  0  0  0  0
   -3.4479    2.2334   -0.7555 H   0  0  0  0  0  0  0  0  0  0  0  0
    2.1358   -2.1907    0.0560 H   0  0  0  0  0  0  0  0  0  0  0  0
    6.6407    1.1348   -1.0330 H   0  0  0  0  0  0  0  0  0  0  0  0
    5.8197   -0.2268   -1.8078 H   0  0  0  0  0  0  0  0  0  0  0  0
    4.9196    1.2410   -1.4290 H   0  0  0  0  0  0  0  0  0  0  0  0
  1  2  1  0
  1 24  1  0
  1 25  1  0
  1 26  1  0
  2  3  1  0
  2  4  1  0
  2  5  1  0
  5  6  1  0
  6  7  2  0
  6 11  1  0
  7  8  1  0
  7 23  1  0
  8  9  2  0
  8 16  1  0
  9 10  1  0
  9 14  1  0
 10 11  2  0
 10 13  1  0
 11 12  1  0
 14 15  2  0
 15 16  1  0
 15 17  1  0
 17 18  2  0
 17 19  2  0
 17 20  1  1
 20 21  1  0
 20 22  1  0
M  END
$$$$

     RDKit          3D

 26 27  0  0  0  0  0  0  0  0999 V2000
    6.5707    0.4563    0.0106 C   0  0  0  0  0  0  0  0  0  0  0  0
    5.3063   -0.3879    0.0030 C   0  0  0  0  0  0  0  0  0  0  0  0
    5.2710   -1.0269    0.8957 H   0  0  0  0  0  0  0  0  0  0  0  0
    5.2807   -1.0255   -0.8910 H   0  0  0  0  0  0  0  0  0  0  0  0
    4.2020    0.5002   -0.0023 O   0  0  0  0  0  0  0  0  0  0  0  0
    2.9441    0.0072   -0.0033 C   0  0  0  0  0  0  0  0  0  0  0  0
    1.9279    0.9623   -0.0040 C   0  0  0  0  0  0  0  0  0  0  0  0
    0.6159    0.5365   -0.0039 C   0  0  0  0  0  0  0  0  0  0  0  0
    0.2898   -0.8415   -0.0034 C   0  0  0  0  0  0  0  0  0  0  0  0
    1.3135   -1.7829   -0.0037 C   0  0  0  0  0  0  0  0  0  0  0  0
    2.6240   -1.3594   -0.0037 C   0  0  0  0  0  0  0  0  0  0  0  0
    3.4078   -2.0994   -0.0040 H   0  0  0  0  0  0  0  0  0  0  0  0
    1.0694   -2.8328   -0.0038 H   0  0  0  0  0  0  0  0  0  0  0  0
   -1.0519   -1.0989   -0.0021 N   0  0  0  0  0  0  0  0  0  0  0  0
   -1.7337   -0.0169   -0.0019 C   0  0  0  0  0  0  0  0  0  0  0  0
   -0.8517    1.4818   -0.0032 S   0  0  0  0  0  0  0  0  0  0  0  0
   -3.5227    0.0030    0.0024 S   0  0  2  0  0  0  0  0  0  0  0  0
   -3.9522    0.5755   -1.2322 O   0  0  0  0  0  0  0  0  0  0  0  0
   -3.9455    0.5796    1.2374 O   0  0  0  0  0  0  0  0  0  0  0  0
   -3.9408   -1.5968    0.0062 N   0  0  0  0  0  0  0  0  0  0  0  0
   -3.6524   -2.0749   -0.8308 H   0  0  0  0  0  0  0  0  0  0  0  0
   -3.6491   -2.0717    0.8438 H   0  0  0  0  0  0  0  0  0  0  0  0
    2.1861    2.0077   -0.0041 H   0  0  0  0  0  0  0  0  0  0  0  0
    6.5971    1.0925   -0.8695 H   0  0  0  0  0  0  0  0  0  0  0  0
    6.5901    1.0874    0.8946 H   0  0  0  0  0  0  0  0  0  0  0  0
    7.4448   -0.1882    0.0122 H   0  0  0  0  0  0  0  0  0  0  0  0
  1  2  1  0
  1 24  1  0
  1 25  1  0
  1 26  1  0
  2  3  1  0
  2  4  1  0
  2  5  1  0
  5  6  1  0
  6  7  2  0
  6 11  1  0
  7  8  1  0
  7 23  1  0
  8  9  2  0
  8 16  1  0
  9 10  1  0
  9 14  1  0
 10 11  2  0
 10 13  1  0
 11 12  1  0
 14 15  2  0
 15 16  1  0
 15 17  1  0
 17 18  2  0
 17 19  2  0
 17 20  1  1
 20 21  1  0
 20 22  1  0
M  END
$$$$

     RDKit          3D

 26 27  0  0  0  0  0  0  0  0999 V2000
    5.0367    1.5900   -0.9072 C   0  0  0  0  0  0  0  0  0  0  0  0
    4.9711    0.8307    0.4140 C   0  0  0  0  0  0  0  0  0  0  0  0
    4.4546    1.4193    1.1814 H   0  0  0  0  0  0  0  0  0  0  0  0
    5.9828    0.6151    0.7684 H   0  0  0  0  0  0  0  0  0  0  0  0
    4.3727   -0.4460    0.2786 O   0  0  0  0  0  0  0  0  0  0  0  0
    3.0306   -0.5614    0.1630 C   0  0  0  0  0  0  0  0  0  0  0  0
    2.1222    0.4849    0.2572 C   0  0  0  0  0  0  0  0  0  0  0  0
    0.7724    0.1935    0.1359 C   0  0  0  0  0  0  0  0  0  0  0  0
    0.3097   -1.1246   -0.0816 C   0  0  0  0  0  0  0  0  0  0  0  0
    1.2364   -2.1649   -0.1719 C   0  0  0  0  0  0  0  0  0  0  0  0
    2.5706   -1.8772   -0.0505 C   0  0  0  0  0  0  0  0  0  0  0  0
    3.3140   -2.6555   -0.1149 H   0  0  0  0  0  0  0  0  0  0  0  0
    0.8884   -3.1710   -0.3377 H   0  0  0  0  0  0  0  0  0  0  0  0
   -1.0447   -1.2323   -0.1823 N   0  0  0  0  0  0  0  0  0  0  0  0
   -1.6139   -0.0976   -0.0571 C   0  0  0  0  0  0  0  0  0  0  0  0
   -0.5853    1.2849    0.2070 S   0  0  0  0  0  0  0  0  0  0  0  0
   -3.3637    0.1837   -0.1217 S   0  0  2  0  0  0  0  0  0  0  0  0
   -3.8798   -0.3253   -1.3544 O   0  0  0  0  0  0  0  0  0  0  0  0
   -3.5889    1.5524    0.2271 O   0  0  0  0  0  0  0  0  0  0  0  0
   -3.8784   -0.7633    1.1528 N   0  0  0  0  0  0  0  0  0  0  0  0
   -4.2412   -1.6506    0.8460 H   0  0  0  0  0  0  0  0  0  0  0  0
   -4.5196   -0.2740    1.7548 H   0  0  0  0  0  0  0  0  0  0  0  0
    2.4276    1.5039    0.4235 H   0  0  0  0  0  0  0  0  0  0  0  0
    4.0406    1.7884   -1.2947 H   0  0  0  0  0  0  0  0  0  0  0  0
    5.5526    2.5346   -0.7598 H   0  0  0  0  0  0  0  0  0  0  0  0
    5.5799    1.0021   -1.6426 H   0  0  0  0  0  0  0  0  0  0  0  0
  1  2  1  0
  1 24  1  0
  1 25  1  0
  1 26  1  0
  2  3  1  0
  2  4  1  0
  2  5  1  0
  5  6  1  0
  6  7  2  0
  6 11  1  0
  7  8  1  0
  7 23  1  0
  8  9  2  0
  8 16  1  0
  9 10  1  0
  9 14  1  0
 10 11  2  0
 10 13  1  0
 11 12  1  0
 14 15  2  0
 15 16  1  0
 15 17  1  0
 17 18  2  0
 17 19  2  0
 17 20  1  1
 20 21  1  0
 20 22  1  0
M  END
$$$$

     RDKit          3D

 26 27  0  0  0  0  0  0  0  0999 V2000
   -6.3589   -0.8827    0.0398 C   0  0  0  0  0  0  0  0  0  0  0  0
   -4.8444   -1.0143    0.0242 C   0  0  0  0  0  0  0  0  0  0  0  0
   -4.5182   -1.5590   -0.8720 H   0  0  0  0  0  0  0  0  0  0  0  0
   -4.4998   -1.5588    0.9136 H   0  0  0  0  0  0  0  0  0  0  0  0
   -4.3008    0.2944    0.0184 O   0  0  0  0  0  0  0  0  0  0  0  0
   -2.9605    0.4555    0.0023 C   0  0  0  0  0  0  0  0  0  0  0  0
   -2.0385   -0.5830   -0.0050 C   0  0  0  0  0  0  0  0  0  0  0  0
   -0.6902   -0.2601   -0.0213 C   0  0  0  0  0  0  0  0  0  0  0  0
   -0.2454    1.0819   -0.0313 C   0  0  0  0  0  0  0  0  0  0  0  0
   -1.1871    2.1130   -0.0229 C   0  0  0  0  0  0  0  0  0  0  0  0
   -2.5197    1.7947   -0.0066 C   0  0  0  0  0  0  0  0  0  0  0  0
   -3.2748    2.5643   -0.0012 H   0  0  0  0  0  0  0  0  0  0  0  0
   -0.8509    3.1365   -0.0318 H   0  0  0  0  0  0  0  0  0  0  0  0
    1.1098    1.2218   -0.0488 N   0  0  0  0  0  0  0  0  0  0  0  0
    1.6960    0.0888   -0.0539 C   0  0  0  0  0  0  0  0  0  0  0  0
    0.6849   -1.3312   -0.0341 S   0  0  0  0  0  0  0  0  0  0  0  0
    3.4528   -0.1539   -0.0698 S   0  0  2  0  0  0  0  0  0  0  0  0
    4.0155    0.5313   -1.1918 O   0  0  0  0  0  0  0  0  0  0  0  0
    3.6928   -1.5541    0.0956 O   0  0  0  0  0  0  0  0  0  0  0  0
    3.8843    0.6124    1.3492 N   0  0  0  0  0  0  0  0  0  0  0  0
    4.2332    1.5427    1.1883 H   0  0  0  0  0  0  0  0  0  0  0  0
    4.5148    0.0572    1.9036 H   0  0  0  0  0  0  0  0  0  0  0  0
   -2.3375   -1.6174    0.0007 H   0  0  0  0  0  0  0  0  0  0  0  0
   -6.6932   -0.3387   -0.8391 H   0  0  0  0  0  0  0  0  0  0  0  0
   -6.8148   -1.8684    0.0447 H   0  0  0  0  0  0  0  0  0  0  0  0
   -6.6751   -0.3382    0.9251 H   0  0  0  0  0  0  0  0  0  0  0  0
  1  2  1  0
  1 24  1  0
  1 25  1  0
  1 26  1  0
  2  3  1  0
  2  4  1  0
  2  5  1  0
  5  6  1  0
  6  7  2  0
  6 11  1  0
  7  8  1  0
  7 23  1  0
  8  9  2  0
  8 16  1  0
  9 10  1  0
  9 14  1  0
 10 11  2  0
 10 13  1  0
 11 12  1  0
 14 15  2  0
 15 16  1  0
 15 17  1  0
 17 18  2  0
 17 19  2  0
 17 20  1  1
 20 21  1  0
 20 22  1  0
M  END
$$$$

     RDKit          3D

 26 27  0  0  0  0  0  0  0  0999 V2000
    5.7161    0.5068    1.0772 C   0  0  0  0  0  0  0  0  0  0  0  0
    5.3794   -0.0366   -0.3079 C   0  0  0  0  0  0  0  0  0  0  0  0
    6.1605   -0.7286   -0.6342 H   0  0  0  0  0  0  0  0  0  0  0  0
    5.3095    0.7738   -1.0431 H   0  0  0  0  0  0  0  0  0  0  0  0
    4.2012   -0.8220   -0.3124 O   0  0  0  0  0  0  0  0  0  0  0  0
    2.9826   -0.2361   -0.2428 C   0  0  0  0  0  0  0  0  0  0  0  0
    1.9103   -1.1207   -0.1324 C   0  0  0  0  0  0  0  0  0  0  0  0
    0.6285   -0.6134   -0.0747 C   0  0  0  0  0  0  0  0  0  0  0  0
    0.3883    0.7826   -0.1252 C   0  0  0  0  0  0  0  0  0  0  0  0
    1.4674    1.6534   -0.2400 C   0  0  0  0  0  0  0  0  0  0  0  0
    2.7462    1.1469   -0.2961 C   0  0  0  0  0  0  0  0  0  0  0  0
    3.5687    1.8377   -0.3875 H   0  0  0  0  0  0  0  0  0  0  0  0
    1.2873    2.7152   -0.2801 H   0  0  0  0  0  0  0  0  0  0  0  0
   -0.9286    1.1272   -0.0524 N   0  0  0  0  0  0  0  0  0  0  0  0
   -1.6736    0.0971    0.0498 C   0  0  0  0  0  0  0  0  0  0  0  0
   -0.8894   -1.4606    0.0678 S   0  0  0  0  0  0  0  0  0  0  0  0
   -3.4445    0.1270    0.1565 S   0  0  2  0  0  0  0  0  0  0  0  0
   -3.8445    1.0165    1.2021 O   0  0  0  0  0  0  0  0  0  0  0  0
   -3.8957   -1.2299    0.1706 O   0  0  0  0  0  0  0  0  0  0  0  0
   -3.8296    0.7817   -1.3311 N   0  0  0  0  0  0  0  0  0  0  0  0
   -4.5462    0.2561   -1.8036 H   0  0  0  0  0  0  0  0  0  0  0  0
   -4.0509    1.7617   -1.2694 H   0  0  0  0  0  0  0  0  0  0  0  0
    2.1037   -2.1795   -0.0956 H   0  0  0  0  0  0  0  0  0  0  0  0
    4.9360    1.1735    1.4364 H   0  0  0  0  0  0  0  0  0  0  0  0
    5.8139   -0.3160    1.7807 H   0  0  0  0  0  0  0  0  0  0  0  0
    6.6555    1.0509    1.0378 H   0  0  0  0  0  0  0  0  0  0  0  0
  1  2  1  0
  1 24  1  0
  1 25  1  0
  1 26  1  0
  2  3  1  0
  2  4  1  0
  2  5  1  0
  5  6  1  0
  6  7  2  0
  6 11  1  0
  7  8  1  0
  7 23  1  0
  8  9  2  0
  8 16  1  0
  9 10  1  0
  9 14  1  0
 10 11  2  0
 10 13  1  0
 11 12  1  0
 14 15  2  0
 15 16  1  0
 15 17  1  0
 17 18  2  0
 17 19  2  0
 17 20  1  6
 20 21  1  0
 20 22  1  0
M  END
$$$$

     RDKit          3D

 26 27  0  0  0  0  0  0  0  0999 V2000
    6.5616    0.5041    0.0482 C   0  0  0  0  0  0  0  0  0  0  0  0
    5.3078   -0.3557    0.0218 C   0  0  0  0  0  0  0  0  0  0  0  0
    5.2755   -1.0070    0.9058 H   0  0  0  0  0  0  0  0  0  0  0  0
    5.2954   -0.9817   -0.8805 H   0  0  0  0  0  0  0  0  0  0  0  0
    4.1926    0.5184    0.0217 O   0  0  0  0  0  0  0  0  0  0  0  0
    2.9407    0.0092    0.0005 C   0  0  0  0  0  0  0  0  0  0  0  0
    1.9124    0.9510   -0.0006 C   0  0  0  0  0  0  0  0  0  0  0  0
    0.6055    0.5091   -0.0202 C   0  0  0  0  0  0  0  0  0  0  0  0
    0.2976   -0.8746   -0.0395 C   0  0  0  0  0  0  0  0  0  0  0  0
    1.3346   -1.8022   -0.0380 C   0  0  0  0  0  0  0  0  0  0  0  0
    2.6390   -1.3617   -0.0186 C   0  0  0  0  0  0  0  0  0  0  0  0
    3.4330   -2.0910   -0.0189 H   0  0  0  0  0  0  0  0  0  0  0  0
    1.1023   -2.8544   -0.0543 H   0  0  0  0  0  0  0  0  0  0  0  0
   -1.0373   -1.1506   -0.0584 N   0  0  0  0  0  0  0  0  0  0  0  0
   -1.7334   -0.0820   -0.0569 C   0  0  0  0  0  0  0  0  0  0  0  0
   -0.8728    1.4347   -0.0273 S   0  0  0  0  0  0  0  0  0  0  0  0
   -3.5070   -0.0244   -0.0688 S   0  0  2  0  0  0  0  0  0  0  0  0
   -3.9983   -0.7789   -1.1798 O   0  0  0  0  0  0  0  0  0  0  0  0
   -3.8935    1.3439    0.0831 O   0  0  0  0  0  0  0  0  0  0  0  0
   -3.8504   -0.8173    1.3601 N   0  0  0  0  0  0  0  0  0  0  0  0
   -4.5213   -0.3175    1.9198 H   0  0  0  0  0  0  0  0  0  0  0  0
   -4.1151   -1.7767    1.2096 H   0  0  0  0  0  0  0  0  0  0  0  0
    2.1576    1.9995    0.0131 H   0  0  0  0  0  0  0  0  0  0  0  0
    6.5656    1.1265    0.9385 H   0  0  0  0  0  0  0  0  0  0  0  0
    7.4435   -0.1296    0.0507 H   0  0  0  0  0  0  0  0  0  0  0  0
    6.5873    1.1494   -0.8253 H   0  0  0  0  0  0  0  0  0  0  0  0
  1  2  1  0
  1 24  1  0
  1 25  1  0
  1 26  1  0
  2  3  1  0
  2  4  1  0
  2  5  1  0
  5  6  1  0
  6  7  2  0
  6 11  1  0
  7  8  1  0
  7 23  1  0
  8  9  2  0
  8 16  1  0
  9 10  1  0
  9 14  1  0
 10 11  2  0
 10 13  1  0
 11 12  1  0
 14 15  2  0
 15 16  1  0
 15 17  1  0
 17 18  2  0
 17 19  2  0
 17 20  1  1
 20 21  1  0
 20 22  1  0
M  END
$$$$

     RDKit          3D

 26 27  0  0  0  0  0  0  0  0999 V2000
   -4.9974   -1.6466    0.9214 C   0  0  0  0  0  0  0  0  0  0  0  0
   -4.9501   -0.8879   -0.4011 C   0  0  0  0  0  0  0  0  0  0  0  0
   -5.9668   -0.6935   -0.7534 H   0  0  0  0  0  0  0  0  0  0  0  0
   -4.4237   -1.4669   -1.1690 H   0  0  0  0  0  0  0  0  0  0  0  0
   -4.3777    0.4006   -0.2681 O   0  0  0  0  0  0  0  0  0  0  0  0
   -3.0379    0.5452   -0.1589 C   0  0  0  0  0  0  0  0  0  0  0  0
   -2.1076   -0.4820   -0.2556 C   0  0  0  0  0  0  0  0  0  0  0  0
   -0.7645   -0.1602   -0.1418 C   0  0  0  0  0  0  0  0  0  0  0  0
   -0.3291    1.1671    0.0720 C   0  0  0  0  0  0  0  0  0  0  0  0
   -1.2770    2.1871    0.1660 C   0  0  0  0  0  0  0  0  0  0  0  0
   -2.6054    1.8705    0.0505 C   0  0  0  0  0  0  0  0  0  0  0  0
   -3.3649    2.6331    0.1152 H   0  0  0  0  0  0  0  0  0  0  0  0
   -0.9484    3.2005    0.3264 H   0  0  0  0  0  0  0  0  0  0  0  0
    1.0236    1.3054    0.1639 N   0  0  0  0  0  0  0  0  0  0  0  0
    1.6220    0.1890    0.0414 C   0  0  0  0  0  0  0  0  0  0  0  0
    0.6175   -1.2198   -0.2164 S   0  0  0  0  0  0  0  0  0  0  0  0
    3.3840   -0.0395    0.0333 S   0  0  2  0  0  0  0  0  0  0  0  0
    3.9628    0.6034    1.1690 O   0  0  0  0  0  0  0  0  0  0  0  0
    3.8676    0.2471   -1.2810 O   0  0  0  0  0  0  0  0  0  0  0  0
    3.4465   -1.7017    0.2594 N   0  0  0  0  0  0  0  0  0  0  0  0
    3.8610   -1.9474    1.1435 H   0  0  0  0  0  0  0  0  0  0  0  0
    3.8960   -2.1722   -0.5091 H   0  0  0  0  0  0  0  0  0  0  0  0
   -2.3921   -1.5076   -0.4197 H   0  0  0  0  0  0  0  0  0  0  0  0
   -3.9965   -1.8278    1.3052 H   0  0  0  0  0  0  0  0  0  0  0  0
   -5.5473   -1.0666    1.6581 H   0  0  0  0  0  0  0  0  0  0  0  0
   -5.4983   -2.5998    0.7775 H   0  0  0  0  0  0  0  0  0  0  0  0
  1  2  1  0
  1 24  1  0
  1 25  1  0
  1 26  1  0
  2  3  1  0
  2  4  1  0
  2  5  1  0
  5  6  1  0
  6  7  2  0
  6 11  1  0
  7  8  1  0
  7 23  1  0
  8  9  2  0
  8 16  1  0
  9 10  1  0
  9 14  1  0
 10 11  2  0
 10 13  1  0
 11 12  1  0
 14 15  2  0
 15 16  1  0
 15 17  1  0
 17 18  2  0
 17 19  2  0
 17 20  1  1
 20 21  1  0
 20 22  1  0
M  END
$$$$

     RDKit          3D

 26 27  0  0  0  0  0  0  0  0999 V2000
    6.3379    0.9552   -0.0088 C   0  0  0  0  0  0  0  0  0  0  0  0
    4.8211    1.0583   -0.0092 C   0  0  0  0  0  0  0  0  0  0  0  0
    4.4754    1.5930   -0.9042 H   0  0  0  0  0  0  0  0  0  0  0  0
    4.4757    1.6003    0.8815 H   0  0  0  0  0  0  0  0  0  0  0  0
    4.3024   -0.2602   -0.0039 O   0  0  0  0  0  0  0  0  0  0  0  0
    2.9654   -0.4475    0.0006 C   0  0  0  0  0  0  0  0  0  0  0  0
    2.0236    0.5736    0.0004 C   0  0  0  0  0  0  0  0  0  0  0  0
    0.6824    0.2237    0.0061 C   0  0  0  0  0  0  0  0  0  0  0  0
    0.2631   -1.1259    0.0132 C   0  0  0  0  0  0  0  0  0  0  0  0
    1.2239   -2.1384    0.0127 C   0  0  0  0  0  0  0  0  0  0  0  0
    2.5505   -1.7945    0.0061 C   0  0  0  0  0  0  0  0  0  0  0  0
    3.3201   -2.5495    0.0050 H   0  0  0  0  0  0  0  0  0  0  0  0
    0.9059   -3.1677    0.0166 H   0  0  0  0  0  0  0  0  0  0  0  0
   -1.0896   -1.2926    0.0195 N   0  0  0  0  0  0  0  0  0  0  0  0
   -1.7029   -0.1775    0.0237 C   0  0  0  0  0  0  0  0  0  0  0  0
   -0.7143    1.2657    0.0108 S   0  0  0  0  0  0  0  0  0  0  0  0
   -3.4668    0.0288   -0.0352 S   0  0  2  0  0  0  0  0  0  0  0  0
   -4.0845   -0.7777    0.9678 O   0  0  0  0  0  0  0  0  0  0  0  0
   -3.8850   -0.0712   -1.3986 O   0  0  0  0  0  0  0  0  0  0  0  0
   -3.5703    1.6401    0.4233 N   0  0  0  0  0  0  0  0  0  0  0  0
   -3.9942    2.2114   -0.2893 H   0  0  0  0  0  0  0  0  0  0  0  0
   -4.0262    1.7512    1.3141 H   0  0  0  0  0  0  0  0  0  0  0  0
    2.3029    1.6136   -0.0047 H   0  0  0  0  0  0  0  0  0  0  0  0
    6.7754    1.9492   -0.0163 H   0  0  0  0  0  0  0  0  0  0  0  0
    6.6735    0.4235    0.8771 H   0  0  0  0  0  0  0  0  0  0  0  0
    6.6728    0.4106   -0.8871 H   0  0  0  0  0  0  0  0  0  0  0  0
  1  2  1  0
  1 24  1  0
  1 25  1  0
  1 26  1  0
  2  3  1  0
  2  4  1  0
  2  5  1  0
  5  6  1  0
  6  7  2  0
  6 11  1  0
  7  8  1  0
  7 23  1  0
  8  9  2  0
  8 16  1  0
  9 10  1  0
  9 14  1  0
 10 11  2  0
 10 13  1  0
 11 12  1  0
 14 15  2  0
 15 16  1  0
 15 17  1  0
 17 18  2  0
 17 19  2  0
 17 20  1  1
 20 21  1  0
 20 22  1  0
M  END
$$$$

     RDKit          3D

 26 27  0  0  0  0  0  0  0  0999 V2000
   -5.7402   -0.4586    1.0806 C   0  0  0  0  0  0  0  0  0  0  0  0
   -5.3817    0.0916   -0.2964 C   0  0  0  0  0  0  0  0  0  0  0  0
   -6.1477    0.8005   -0.6228 H   0  0  0  0  0  0  0  0  0  0  0  0
   -5.3197   -0.7130   -1.0385 H   0  0  0  0  0  0  0  0  0  0  0  0
   -4.1893    0.8555   -0.2841 O   0  0  0  0  0  0  0  0  0  0  0  0
   -2.9819    0.2461   -0.2282 C   0  0  0  0  0  0  0  0  0  0  0  0
   -1.8919    1.1107   -0.1274 C   0  0  0  0  0  0  0  0  0  0  0  0
   -0.6202    0.5783   -0.0850 C   0  0  0  0  0  0  0  0  0  0  0  0
   -0.4061   -0.8213   -0.1384 C   0  0  0  0  0  0  0  0  0  0  0  0
   -1.5021   -1.6714   -0.2412 C   0  0  0  0  0  0  0  0  0  0  0  0
   -2.7719   -1.1407   -0.2847 C   0  0  0  0  0  0  0  0  0  0  0  0
   -3.6077   -1.8160   -0.3695 H   0  0  0  0  0  0  0  0  0  0  0  0
   -1.3410   -2.7359   -0.2863 H   0  0  0  0  0  0  0  0  0  0  0  0
    0.9052   -1.1911   -0.0832 N   0  0  0  0  0  0  0  0  0  0  0  0
    1.6747   -0.1821    0.0118 C   0  0  0  0  0  0  0  0  0  0  0  0
    0.9154    1.3944    0.0390 S   0  0  0  0  0  0  0  0  0  0  0  0
    3.4513   -0.2393    0.0297 S   0  0  2  0  0  0  0  0  0  0  0  0
    3.9099   -0.2004   -1.3240 O   0  0  0  0  0  0  0  0  0  0  0  0
    3.8985   -1.2702    0.9104 O   0  0  0  0  0  0  0  0  0  0  0  0
    3.7691    1.2524    0.7272 N   0  0  0  0  0  0  0  0  0  0  0  0
    4.3158    1.8466    0.1257 H   0  0  0  0  0  0  0  0  0  0  0  0
    4.1782    1.1639    1.6428 H   0  0  0  0  0  0  0  0  0  0  0  0
   -2.0646    2.1730   -0.0888 H   0  0  0  0  0  0  0  0  0  0  0  0
   -4.9713   -1.1360    1.4439 H   0  0  0  0  0  0  0  0  0  0  0  0
   -5.8385    0.3596    1.7894 H   0  0  0  0  0  0  0  0  0  0  0  0
   -6.6844   -0.9931    1.0256 H   0  0  0  0  0  0  0  0  0  0  0  0
  1  2  1  0
  1 24  1  0
  1 25  1  0
  1 26  1  0
  2  3  1  0
  2  4  1  0
  2  5  1  0
  5  6  1  0
  6  7  2  0
  6 11  1  0
  7  8  1  0
  7 23  1  0
  8  9  2  0
  8 16  1  0
  9 10  1  0
  9 14  1  0
 10 11  2  0
 10 13  1  0
 11 12  1  0
 14 15  2  0
 15 16  1  0
 15 17  1  0
 17 18  2  0
 17 19  2  0
 17 20  1  1
 20 21  1  0
 20 22  1  0
M  END
$$$$

     RDKit          3D

 26 27  0  0  0  0  0  0  0  0999 V2000
    6.5531    0.5752   -0.0182 C   0  0  0  0  0  0  0  0  0  0  0  0
    5.3148   -0.3071   -0.0125 C   0  0  0  0  0  0  0  0  0  0  0  0
    5.3094   -0.9473    0.8799 H   0  0  0  0  0  0  0  0  0  0  0  0
    5.2987   -0.9447   -0.9067 H   0  0  0  0  0  0  0  0  0  0  0  0
    4.1838    0.5467   -0.0051 O   0  0  0  0  0  0  0  0  0  0  0  0
    2.9417    0.0138    0.0031 C   0  0  0  0  0  0  0  0  0  0  0  0
    1.8961    0.9369    0.0022 C   0  0  0  0  0  0  0  0  0  0  0  0
    0.5984    0.4698    0.0100 C   0  0  0  0  0  0  0  0  0  0  0  0
    0.3154   -0.9188    0.0213 C   0  0  0  0  0  0  0  0  0  0  0  0
    1.3688   -1.8269    0.0223 C   0  0  0  0  0  0  0  0  0  0  0  0
    2.6652   -1.3622    0.0124 C   0  0  0  0  0  0  0  0  0  0  0  0
    3.4723   -2.0768    0.0116 H   0  0  0  0  0  0  0  0  0  0  0  0
    1.1545   -2.8829    0.0294 H   0  0  0  0  0  0  0  0  0  0  0  0
   -1.0145   -1.2202    0.0281 N   0  0  0  0  0  0  0  0  0  0  0  0
   -1.7348   -0.1714    0.0293 C   0  0  0  0  0  0  0  0  0  0  0  0
   -0.8975    1.3654    0.0116 S   0  0  0  0  0  0  0  0  0  0  0  0
   -3.5109   -0.1449   -0.0438 S   0  0  2  0  0  0  0  0  0  0  0  0
   -4.0528   -1.0682    0.9007 O   0  0  0  0  0  0  0  0  0  0  0  0
   -3.8988   -0.2104   -1.4183 O   0  0  0  0  0  0  0  0  0  0  0  0
   -3.7875    1.4172    0.4996 N   0  0  0  0  0  0  0  0  0  0  0  0
   -4.2533    1.4333    1.3919 H   0  0  0  0  0  0  0  0  0  0  0  0
   -4.2633    1.9818   -0.1849 H   0  0  0  0  0  0  0  0  0  0  0  0
    2.1220    1.9898   -0.0059 H   0  0  0  0  0  0  0  0  0  0  0  0
    6.5486    1.2148   -0.8963 H   0  0  0  0  0  0  0  0  0  0  0  0
    6.5652    1.2037    0.8677 H   0  0  0  0  0  0  0  0  0  0  0  0
    7.4462   -0.0426   -0.0305 H   0  0  0  0  0  0  0  0  0  0  0  0
  1  2  1  0
  1 24  1  0
  1 25  1  0
  1 26  1  0
  2  3  1  0
  2  4  1  0
  2  5  1  0
  5  6  1  0
  6  7  2  0
  6 11  1  0
  7  8  1  0
  7 23  1  0
  8  9  2  0
  8 16  1  0
  9 10  1  0
  9 14  1  0
 10 11  2  0
 10 13  1  0
 11 12  1  0
 14 15  2  0
 15 16  1  0
 15 17  1  0
 17 18  2  0
 17 19  2  0
 17 20  1  1
 20 21  1  0
 20 22  1  0
M  END
$$$$

     RDKit          3D

 26 27  0  0  0  0  0  0  0  0999 V2000
   -6.3538   -0.9317    0.0000 C   0  0  0  0  0  0  0  0  0  0  0  0
   -4.8380   -1.0459   -0.0021 C   0  0  0  0  0  0  0  0  0  0  0  0
   -4.4977   -1.5863   -0.8958 H   0  0  0  0  0  0  0  0  0  0  0  0
   -4.4953   -1.5870    0.8902 H   0  0  0  0  0  0  0  0  0  0  0  0
   -4.3095    0.2689   -0.0023 O   0  0  0  0  0  0  0  0  0  0  0  0
   -2.9724    0.4477   -0.0009 C   0  0  0  0  0  0  0  0  0  0  0  0
   -2.0371   -0.5802   -0.0005 C   0  0  0  0  0  0  0  0  0  0  0  0
   -0.6956   -0.2361    0.0016 C   0  0  0  0  0  0  0  0  0  0  0  0
   -0.2643    1.1092    0.0037 C   0  0  0  0  0  0  0  0  0  0  0  0
   -1.2188    2.1272    0.0029 C   0  0  0  0  0  0  0  0  0  0  0  0
   -2.5477    1.7915    0.0005 C   0  0  0  0  0  0  0  0  0  0  0  0
   -3.3122    2.5517   -0.0004 H   0  0  0  0  0  0  0  0  0  0  0  0
   -0.8937    3.1541    0.0038 H   0  0  0  0  0  0  0  0  0  0  0  0
    1.0893    1.2657    0.0063 N   0  0  0  0  0  0  0  0  0  0  0  0
    1.7040    0.1551    0.0075 C   0  0  0  0  0  0  0  0  0  0  0  0
    0.6907   -1.2878    0.0030 S   0  0  0  0  0  0  0  0  0  0  0  0
    3.4889   -0.0223   -0.0083 S   0  0  2  0  0  0  0  0  0  0  0  0
    4.0046    0.5625    1.1838 O   0  0  0  0  0  0  0  0  0  0  0  0
    3.9566    0.3890   -1.2900 O   0  0  0  0  0  0  0  0  0  0  0  0
    3.7252   -1.6570    0.0998 N   0  0  0  0  0  0  0  0  0  0  0  0
    3.4871   -2.0805    0.9789 H   0  0  0  0  0  0  0  0  0  0  0  0
    3.4683   -2.1947   -0.7088 H   0  0  0  0  0  0  0  0  0  0  0  0
   -2.3234   -1.6185   -0.0020 H   0  0  0  0  0  0  0  0  0  0  0  0
   -6.6863   -0.3900   -0.8809 H   0  0  0  0  0  0  0  0  0  0  0  0
   -6.7984   -1.9226   -0.0007 H   0  0  0  0  0  0  0  0  0  0  0  0
   -6.6840   -0.3924    0.8833 H   0  0  0  0  0  0  0  0  0  0  0  0
  1  2  1  0
  1 24  1  0
  1 25  1  0
  1 26  1  0
  2  3  1  0
  2  4  1  0
  2  5  1  0
  5  6  1  0
  6  7  2  0
  6 11  1  0
  7  8  1  0
  7 23  1  0
  8  9  2  0
  8 16  1  0
  9 10  1  0
  9 14  1  0
 10 11  2  0
 10 13  1  0
 11 12  1  0
 14 15  2  0
 15 16  1  0
 15 17  1  0
 17 18  2  0
 17 19  2  0
 17 20  1  1
 20 21  1  0
 20 22  1  0
M  END
$$$$

     RDKit          3D

 26 27  0  0  0  0  0  0  0  0999 V2000
    5.7285    0.4901   -1.0949 C   0  0  0  0  0  0  0  0  0  0  0  0
    5.3901   -0.0743    0.2812 C   0  0  0  0  0  0  0  0  0  0  0  0
    5.3307    0.7231    1.0312 H   0  0  0  0  0  0  0  0  0  0  0  0
    6.1641   -0.7809    0.5925 H   0  0  0  0  0  0  0  0  0  0  0  0
    4.2027   -0.8467    0.2754 O   0  0  0  0  0  0  0  0  0  0  0  0
    2.9914   -0.2463    0.2306 C   0  0  0  0  0  0  0  0  0  0  0  0
    1.9079   -1.1194    0.1248 C   0  0  0  0  0  0  0  0  0  0  0  0
    0.6343   -0.5941    0.0904 C   0  0  0  0  0  0  0  0  0  0  0  0
    0.4059    0.8020    0.1588 C   0  0  0  0  0  0  0  0  0  0  0  0
    1.4954    1.6588    0.2684 C   0  0  0  0  0  0  0  0  0  0  0  0
    2.7696    1.1376    0.3026 C   0  0  0  0  0  0  0  0  0  0  0  0
    3.6002    1.8187    0.3920 H   0  0  0  0  0  0  0  0  0  0  0  0
    1.3254    2.7214    0.3243 H   0  0  0  0  0  0  0  0  0  0  0  0
   -0.9084    1.1606    0.1080 N   0  0  0  0  0  0  0  0  0  0  0  0
   -1.6774    0.1557    0.0081 C   0  0  0  0  0  0  0  0  0  0  0  0
   -0.8916   -1.4225   -0.0379 S   0  0  0  0  0  0  0  0  0  0  0  0
   -3.4678    0.2525   -0.0645 S   0  0  2  0  0  0  0  0  0  0  0  0
   -3.8259    0.9992   -1.2236 O   0  0  0  0  0  0  0  0  0  0  0  0
   -3.9359    0.6330    1.2267 O   0  0  0  0  0  0  0  0  0  0  0  0
   -3.9406   -1.3134   -0.3180 N   0  0  0  0  0  0  0  0  0  0  0  0
   -3.7180   -1.6990   -1.2184 H   0  0  0  0  0  0  0  0  0  0  0  0
   -3.8049   -1.9438    0.4523 H   0  0  0  0  0  0  0  0  0  0  0  0
    2.0891   -2.1800    0.0749 H   0  0  0  0  0  0  0  0  0  0  0  0
    6.6742    1.0226   -1.0481 H   0  0  0  0  0  0  0  0  0  0  0  0
    5.8155   -0.3207   -1.8137 H   0  0  0  0  0  0  0  0  0  0  0  0
    4.9556    1.1725   -1.4399 H   0  0  0  0  0  0  0  0  0  0  0  0
  1  2  1  0
  1 24  1  0
  1 25  1  0
  1 26  1  0
  2  3  1  0
  2  4  1  0
  2  5  1  0
  5  6  1  0
  6  7  2  0
  6 11  1  0
  7  8  1  0
  7 23  1  0
  8  9  2  0
  8 16  1  0
  9 10  1  0
  9 14  1  0
 10 11  2  0
 10 13  1  0
 11 12  1  0
 14 15  2  0
 15 16  1  0
 15 17  1  0
 17 18  2  0
 17 19  2  0
 17 20  1  6
 20 21  1  0
 20 22  1  0
M  END
$$$$
