
     RDKit          3D

 16 16  0  0  0  0  0  0  0  0999 V2000
   -1.7368   -1.2057   -0.0233 C   0  0  0  0  0  0  0  0  0  0  0  0
   -0.4532   -0.5642   -0.0097 N   0  0  0  0  0  0  0  0  0  0  0  0
   -0.2840    0.7753    0.0118 C   0  0  0  0  0  0  0  0  0  0  0  0
   -1.1718    1.5960   -0.0461 O   0  0  0  0  0  0  0  0  0  0  0  0
    1.2093    1.0448    0.1365 C   0  0  0  0  0  0  0  0  0  0  0  0
    1.5144    1.8566   -0.5202 H   0  0  0  0  0  0  0  0  0  0  0  0
    1.8617   -0.2954   -0.1988 C   0  0  0  0  0  0  0  0  0  0  0  0
    2.7727   -0.4762    0.3681 H   0  0  0  0  0  0  0  0  0  0  0  0
    2.1035   -0.3359   -1.2613 H   0  0  0  0  0  0  0  0  0  0  0  0
    0.7684   -1.3199    0.1252 C   0  0  0  0  0  0  0  0  0  0  0  0
    0.7701   -2.1699   -0.5633 H   0  0  0  0  0  0  0  0  0  0  0  0
    0.8669   -1.7073    1.1491 H   0  0  0  0  0  0  0  0  0  0  0  0
    1.4089    1.3485    1.1661 H   0  0  0  0  0  0  0  0  0  0  0  0
   -2.4927   -0.4262   -0.1052 H   0  0  0  0  0  0  0  0  0  0  0  0
   -1.8182   -1.8840   -0.8762 H   0  0  0  0  0  0  0  0  0  0  0  0
   -1.8985   -1.7727    0.8979 H   0  0  0  0  0  0  0  0  0  0  0  0
  1  2  1  0
  1 14  1  0
  1 15  1  0
  1 16  1  0
  2  3  1  0
  2 10  1  0
  3  4  2  0
  3  5  1  0
  5  6  1  0
  5  7  1  0
  5 13  1  0
  7  8  1  0
  7  9  1  0
  7 10  1  0
 10 11  1  0
 10 12  1  0
M  END
$$$$
