
     RDKit          3D

 49 53  0  0  0  0  0  0  0  0999 V2000
   -8.1487   -1.2708    1.1295 O   0  0  0  0  0  0  0  0  0  0  0  0
   -6.9866   -1.5304    0.9269 C   0  0  0  0  0  0  0  0  0  0  0  0
   -6.5335   -2.7980    0.9556 O   0  0  0  0  0  0  0  0  0  0  0  0
   -7.2691   -3.3965    1.1569 H   0  0  0  0  0  0  0  0  0  0  0  0
   -5.9411   -0.5379    0.6306 C   0  0  0  0  0  0  0  0  0  0  0  0
   -4.6121   -0.9018    0.4194 C   0  0  0  0  0  0  0  0  0  0  0  0
   -3.6572    0.0526    0.1415 C   0  0  0  0  0  0  0  0  0  0  0  0
   -4.0146    1.4005    0.0676 C   0  0  0  0  0  0  0  0  0  0  0  0
   -5.3477    1.7662    0.2888 C   0  0  0  0  0  0  0  0  0  0  0  0
   -6.2968    0.8103    0.5650 C   0  0  0  0  0  0  0  0  0  0  0  0
   -7.3274    1.0819    0.7347 H   0  0  0  0  0  0  0  0  0  0  0  0
   -5.6274    2.8091    0.2400 H   0  0  0  0  0  0  0  0  0  0  0  0
   -3.1113    2.4089   -0.2070 N   0  0  0  0  0  0  0  0  0  0  0  0
   -1.7936    2.3629   -0.5406 C   0  0  0  0  0  0  0  0  0  0  0  0
   -1.1664    1.2040   -0.6883 N   0  0  0  0  0  0  0  0  0  0  0  0
    0.1189    1.2328   -1.0297 C   0  0  0  0  0  0  0  0  0  0  0  0
    0.7839    2.4428   -1.2595 C   0  0  0  0  0  0  0  0  0  0  0  0
    0.0346    3.5962   -1.0519 C   0  0  0  0  0  0  0  0  0  0  0  0
   -1.2341    3.5708   -0.7027 N   0  0  0  0  0  0  0  0  0  0  0  0
    0.4711    4.5784   -1.1822 H   0  0  0  0  0  0  0  0  0  0  0  0
    2.2245    2.4576   -1.6698 C   0  0  0  0  0  0  0  0  0  0  0  0
    3.0201    1.9854   -0.5693 N   0  0  0  0  0  0  0  0  0  0  0  0
    2.9488    0.7723   -0.2142 C   0  0  0  0  0  0  0  0  0  0  0  0
    3.7941    0.3495    0.9238 C   0  0  0  0  0  0  0  0  0  0  0  0
    3.2762   -0.3960    1.9810 C   0  0  0  0  0  0  0  0  0  0  0  0
    4.0428   -0.7878    3.0618 C   0  0  0  0  0  0  0  0  0  0  0  0
    5.3809   -0.4354    3.1008 C   0  0  0  0  0  0  0  0  0  0  0  0
    5.9384    0.3020    2.0712 C   0  0  0  0  0  0  0  0  0  0  0  0
    5.1435    0.6887    1.0069 C   0  0  0  0  0  0  0  0  0  0  0  0
    5.7099    1.3741    0.0044 F   0  0  0  0  0  0  0  0  0  0  0  0
    6.9791    0.5836    2.0796 H   0  0  0  0  0  0  0  0  0  0  0  0
    5.9910   -0.7375    3.9371 H   0  0  0  0  0  0  0  0  0  0  0  0
    3.5852   -1.3584    3.8538 H   0  0  0  0  0  0  0  0  0  0  0  0
    1.9726   -0.7317    1.9639 F   0  0  0  0  0  0  0  0  0  0  0  0
    2.1113   -0.2868   -0.8195 C   0  0  0  0  0  0  0  0  0  0  0  0
    2.6640   -1.5577   -0.9681 C   0  0  0  0  0  0  0  0  0  0  0  0
    1.9057   -2.5901   -1.4849 C   0  0  0  0  0  0  0  0  0  0  0  0
    0.5744   -2.3909   -1.8282 C   0  0  0  0  0  0  0  0  0  0  0  0
    0.0201   -1.1398   -1.6649 C   0  0  0  0  0  0  0  0  0  0  0  0
    0.7753   -0.0694   -1.1852 C   0  0  0  0  0  0  0  0  0  0  0  0
   -1.0139   -0.9637   -1.9176 H   0  0  0  0  0  0  0  0  0  0  0  0
   -0.0131   -3.2093   -2.2129 H   0  0  0  0  0  0  0  0  0  0  0  0
    2.6192   -4.1489   -1.6897 Cl  0  0  0  0  0  0  0  0  0  0  0  0
    3.6929   -1.7326   -0.6902 H   0  0  0  0  0  0  0  0  0  0  0  0
    2.5518    3.4748   -1.8963 H   0  0  0  0  0  0  0  0  0  0  0  0
    2.3591    1.8221   -2.5572 H   0  0  0  0  0  0  0  0  0  0  0  0
   -3.4673    3.3557   -0.1635 H   0  0  0  0  0  0  0  0  0  0  0  0
   -2.6286   -0.2247   -0.0131 H   0  0  0  0  0  0  0  0  0  0  0  0
   -4.3332   -1.9421    0.4783 H   0  0  0  0  0  0  0  0  0  0  0  0
  1  2  2  0
  2  3  1  0
  2  5  1  0
  3  4  1  0
  5  6  2  0
  5 10  1  0
  6  7  1  0
  6 49  1  0
  7  8  2  0
  7 48  1  0
  8  9  1  0
  8 13  1  0
  9 10  2  0
  9 12  1  0
 10 11  1  0
 13 14  1  0
 13 47  1  0
 14 15  2  0
 14 19  1  0
 15 16  1  0
 16 17  2  0
 16 40  1  0
 17 18  1  0
 17 21  1  0
 18 19  2  0
 18 20  1  0
 21 22  1  0
 21 45  1  0
 21 46  1  0
 22 23  2  0
 23 24  1  0
 23 35  1  0
 24 25  2  0
 24 29  1  0
 25 26  1  0
 25 34  1  0
 26 27  2  0
 26 33  1  0
 27 28  1  0
 27 32  1  0
 28 29  2  0
 28 31  1  0
 29 30  1  0
 35 36  1  0
 35 40  2  0
 36 37  2  0
 36 44  1  0
 37 38  1  0
 37 43  1  0
 38 39  2  0
 38 42  1  0
 39 40  1  0
 39 41  1  0
M  END
$$$$

     RDKit          3D

 49 53  0  0  0  0  0  0  0  0999 V2000
   -9.3409   -0.2857    1.1999 O   0  0  0  0  0  0  0  0  0  0  0  0
   -8.5619    0.3686    0.5485 C   0  0  0  0  0  0  0  0  0  0  0  0
   -8.9612    1.4486   -0.1489 O   0  0  0  0  0  0  0  0  0  0  0  0
   -9.9146    1.5748   -0.0264 H   0  0  0  0  0  0  0  0  0  0  0  0
   -7.1219    0.0891    0.4284 C   0  0  0  0  0  0  0  0  0  0  0  0
   -6.5940   -1.0085    1.1100 C   0  0  0  0  0  0  0  0  0  0  0  0
   -5.2536   -1.3020    1.0205 C   0  0  0  0  0  0  0  0  0  0  0  0
   -4.4023   -0.5051    0.2460 C   0  0  0  0  0  0  0  0  0  0  0  0
   -4.9297    0.5938   -0.4350 C   0  0  0  0  0  0  0  0  0  0  0  0
   -6.2741    0.8837   -0.3420 C   0  0  0  0  0  0  0  0  0  0  0  0
   -6.6802    1.7328   -0.8686 H   0  0  0  0  0  0  0  0  0  0  0  0
   -4.2716    1.2053   -1.0281 H   0  0  0  0  0  0  0  0  0  0  0  0
   -3.0677   -0.8587    0.1951 N   0  0  0  0  0  0  0  0  0  0  0  0
   -2.0148   -0.2984   -0.4585 C   0  0  0  0  0  0  0  0  0  0  0  0
   -0.8621   -0.9453   -0.2701 N   0  0  0  0  0  0  0  0  0  0  0  0
    0.2221   -0.4742   -0.8720 C   0  0  0  0  0  0  0  0  0  0  0  0
    0.1532    0.6473   -1.7126 C   0  0  0  0  0  0  0  0  0  0  0  0
   -1.0910    1.2525   -1.8140 C   0  0  0  0  0  0  0  0  0  0  0  0
   -2.1681    0.7958   -1.2029 N   0  0  0  0  0  0  0  0  0  0  0  0
   -1.2363    2.1382   -2.4192 H   0  0  0  0  0  0  0  0  0  0  0  0
    1.3758    1.1522   -2.4155 C   0  0  0  0  0  0  0  0  0  0  0  0
    2.2845    1.6830   -1.4363 N   0  0  0  0  0  0  0  0  0  0  0  0
    2.8588    0.9034   -0.6208 C   0  0  0  0  0  0  0  0  0  0  0  0
    3.7859    1.5117    0.3583 C   0  0  0  0  0  0  0  0  0  0  0  0
    4.7490    2.4457   -0.0201 C   0  0  0  0  0  0  0  0  0  0  0  0
    5.6166    3.0228    0.8900 C   0  0  0  0  0  0  0  0  0  0  0  0
    5.5246    2.6781    2.2269 C   0  0  0  0  0  0  0  0  0  0  0  0
    4.5777    1.7600    2.6471 C   0  0  0  0  0  0  0  0  0  0  0  0
    3.7312    1.1927    1.7137 C   0  0  0  0  0  0  0  0  0  0  0  0
    2.8044    0.3138    2.1393 F   0  0  0  0  0  0  0  0  0  0  0  0
    4.4843    1.4785    3.6835 H   0  0  0  0  0  0  0  0  0  0  0  0
    6.1934    3.1257    2.9447 H   0  0  0  0  0  0  0  0  0  0  0  0
    6.3492    3.7325    0.5406 H   0  0  0  0  0  0  0  0  0  0  0  0
    4.8765    2.7679   -1.3144 F   0  0  0  0  0  0  0  0  0  0  0  0
    2.7149   -0.5672   -0.5408 C   0  0  0  0  0  0  0  0  0  0  0  0
    3.8580   -1.3262   -0.2956 C   0  0  0  0  0  0  0  0  0  0  0  0
    3.7681   -2.6984   -0.1662 C   0  0  0  0  0  0  0  0  0  0  0  0
    2.5378   -3.3393   -0.2378 C   0  0  0  0  0  0  0  0  0  0  0  0
    1.4038   -2.5890   -0.4617 C   0  0  0  0  0  0  0  0  0  0  0  0
    1.4716   -1.2074   -0.6410 C   0  0  0  0  0  0  0  0  0  0  0  0
    0.4351   -3.0610   -0.5091 H   0  0  0  0  0  0  0  0  0  0  0  0
    2.4777   -4.4090   -0.1147 H   0  0  0  0  0  0  0  0  0  0  0  0
    5.2009   -3.6225    0.1062 Cl  0  0  0  0  0  0  0  0  0  0  0  0
    4.8197   -0.8405   -0.2192 H   0  0  0  0  0  0  0  0  0  0  0  0
    1.1208    1.9655   -3.0986 H   0  0  0  0  0  0  0  0  0  0  0  0
    1.8387    0.3297   -2.9801 H   0  0  0  0  0  0  0  0  0  0  0  0
   -2.8001   -1.6727    0.7344 H   0  0  0  0  0  0  0  0  0  0  0  0
   -4.8490   -2.1529    1.5502 H   0  0  0  0  0  0  0  0  0  0  0  0
   -7.2586   -1.6168    1.7042 H   0  0  0  0  0  0  0  0  0  0  0  0
  1  2  2  0
  2  3  1  0
  2  5  1  0
  3  4  1  0
  5  6  2  0
  5 10  1  0
  6  7  1  0
  6 49  1  0
  7  8  2  0
  7 48  1  0
  8  9  1  0
  8 13  1  0
  9 10  2  0
  9 12  1  0
 10 11  1  0
 13 14  1  0
 13 47  1  0
 14 15  2  0
 14 19  1  0
 15 16  1  0
 16 17  2  0
 16 40  1  0
 17 18  1  0
 17 21  1  0
 18 19  2  0
 18 20  1  0
 21 22  1  0
 21 45  1  0
 21 46  1  0
 22 23  2  0
 23 24  1  0
 23 35  1  0
 24 25  2  0
 24 29  1  0
 25 26  1  0
 25 34  1  0
 26 27  2  0
 26 33  1  0
 27 28  1  0
 27 32  1  0
 28 29  2  0
 28 31  1  0
 29 30  1  0
 35 36  1  0
 35 40  2  0
 36 37  2  0
 36 44  1  0
 37 38  1  0
 37 43  1  0
 38 39  2  0
 38 42  1  0
 39 40  1  0
 39 41  1  0
M  END
$$$$

     RDKit          3D

 49 53  0  0  0  0  0  0  0  0999 V2000
    9.0436    1.4183    0.0957 O   0  0  0  0  0  0  0  0  0  0  0  0
    8.5338    0.4884   -0.4821 C   0  0  0  0  0  0  0  0  0  0  0  0
    9.2554   -0.3274   -1.2750 O   0  0  0  0  0  0  0  0  0  0  0  0
   10.1792   -0.0333   -1.2795 H   0  0  0  0  0  0  0  0  0  0  0  0
    7.1092    0.1271   -0.4072 C   0  0  0  0  0  0  0  0  0  0  0  0
    6.5881   -0.9647   -1.1013 C   0  0  0  0  0  0  0  0  0  0  0  0
    5.2493   -1.2678   -1.0035 C   0  0  0  0  0  0  0  0  0  0  0  0
    4.3955   -0.4905   -0.2125 C   0  0  0  0  0  0  0  0  0  0  0  0
    4.9173    0.6027    0.4824 C   0  0  0  0  0  0  0  0  0  0  0  0
    6.2580    0.9017    0.3815 C   0  0  0  0  0  0  0  0  0  0  0  0
    6.6749    1.7435    0.9130 H   0  0  0  0  0  0  0  0  0  0  0  0
    4.2588    1.2000    1.0894 H   0  0  0  0  0  0  0  0  0  0  0  0
    3.0643   -0.8566   -0.1605 N   0  0  0  0  0  0  0  0  0  0  0  0
    2.0072   -0.3058    0.4948 C   0  0  0  0  0  0  0  0  0  0  0  0
    0.8569   -0.9533    0.2947 N   0  0  0  0  0  0  0  0  0  0  0  0
   -0.2313   -0.4880    0.8941 C   0  0  0  0  0  0  0  0  0  0  0  0
   -0.1689    0.6262    1.7446 C   0  0  0  0  0  0  0  0  0  0  0  0
    1.0744    1.2309    1.8601 C   0  0  0  0  0  0  0  0  0  0  0  0
    2.1552    0.7808    1.2510 N   0  0  0  0  0  0  0  0  0  0  0  0
    1.2156    2.1108    2.4748 H   0  0  0  0  0  0  0  0  0  0  0  0
   -1.3977    1.1258    2.4405 C   0  0  0  0  0  0  0  0  0  0  0  0
   -2.2943    1.6672    1.4558 N   0  0  0  0  0  0  0  0  0  0  0  0
   -2.8607    0.8961    0.6268 C   0  0  0  0  0  0  0  0  0  0  0  0
   -3.7721    1.5156   -0.3599 C   0  0  0  0  0  0  0  0  0  0  0  0
   -3.6970    1.2097   -1.7173 C   0  0  0  0  0  0  0  0  0  0  0  0
   -4.5261    1.7896   -2.6584 C   0  0  0  0  0  0  0  0  0  0  0  0
   -5.4760    2.7074   -2.2443 C   0  0  0  0  0  0  0  0  0  0  0  0
   -5.5885    3.0389   -0.9056 C   0  0  0  0  0  0  0  0  0  0  0  0
   -4.7377    2.4494    0.0124 C   0  0  0  0  0  0  0  0  0  0  0  0
   -4.8847    2.7590    1.3077 F   0  0  0  0  0  0  0  0  0  0  0  0
   -6.3238    3.7480   -0.5609 H   0  0  0  0  0  0  0  0  0  0  0  0
   -6.1311    3.1651   -2.9683 H   0  0  0  0  0  0  0  0  0  0  0  0
   -4.4170    1.5183   -3.6960 H   0  0  0  0  0  0  0  0  0  0  0  0
   -2.7668    0.3311   -2.1367 F   0  0  0  0  0  0  0  0  0  0  0  0
   -2.7199   -0.5742    0.5371 C   0  0  0  0  0  0  0  0  0  0  0  0
   -3.8623   -1.3284    0.2739 C   0  0  0  0  0  0  0  0  0  0  0  0
   -3.7744   -2.7001    0.1377 C   0  0  0  0  0  0  0  0  0  0  0  0
   -2.5467   -3.3448    0.2202 C   0  0  0  0  0  0  0  0  0  0  0  0
   -1.4132   -2.5989    0.4607 C   0  0  0  0  0  0  0  0  0  0  0  0
   -1.4795   -1.2183    0.6471 C   0  0  0  0  0  0  0  0  0  0  0  0
   -0.4465   -3.0739    0.5165 H   0  0  0  0  0  0  0  0  0  0  0  0
   -2.4883   -4.4140    0.0921 H   0  0  0  0  0  0  0  0  0  0  0  0
   -5.2063   -3.6188   -0.1570 Cl  0  0  0  0  0  0  0  0  0  0  0  0
   -4.8216   -0.8395    0.1891 H   0  0  0  0  0  0  0  0  0  0  0  0
   -1.1488    1.9323    3.1337 H   0  0  0  0  0  0  0  0  0  0  0  0
   -1.8677    0.2987    2.9922 H   0  0  0  0  0  0  0  0  0  0  0  0
    2.8005   -1.6652   -0.7098 H   0  0  0  0  0  0  0  0  0  0  0  0
    4.8477   -2.1143   -1.5428 H   0  0  0  0  0  0  0  0  0  0  0  0
    7.2410   -1.5672   -1.7129 H   0  0  0  0  0  0  0  0  0  0  0  0
  1  2  2  0
  2  3  1  0
  2  5  1  0
  3  4  1  0
  5  6  2  0
  5 10  1  0
  6  7  1  0
  6 49  1  0
  7  8  2  0
  7 48  1  0
  8  9  1  0
  8 13  1  0
  9 10  2  0
  9 12  1  0
 10 11  1  0
 13 14  1  0
 13 47  1  0
 14 15  2  0
 14 19  1  0
 15 16  1  0
 16 17  2  0
 16 40  1  0
 17 18  1  0
 17 21  1  0
 18 19  2  0
 18 20  1  0
 21 22  1  0
 21 45  1  0
 21 46  1  0
 22 23  2  0
 23 24  1  0
 23 35  1  0
 24 25  2  0
 24 29  1  0
 25 26  1  0
 25 34  1  0
 26 27  2  0
 26 33  1  0
 27 28  1  0
 27 32  1  0
 28 29  2  0
 28 31  1  0
 29 30  1  0
 35 36  1  0
 35 40  2  0
 36 37  2  0
 36 44  1  0
 37 38  1  0
 37 43  1  0
 38 39  2  0
 38 42  1  0
 39 40  1  0
 39 41  1  0
M  END
$$$$
