
     RDKit          3D

 40 42  0  0  0  0  0  0  0  0999 V2000
    0.0198   -6.0970   -0.2318 C   0  0  0  0  0  0  0  0  0  0  0  0
   -0.4648   -4.6840   -0.1451 C   0  0  0  0  0  0  0  0  0  0  0  0
   -1.4699   -4.3219    0.7431 C   0  0  0  0  0  0  0  0  0  0  0  0
   -1.9238   -3.0185    0.8091 C   0  0  0  0  0  0  0  0  0  0  0  0
   -1.3714   -2.0382   -0.0110 C   0  0  0  0  0  0  0  0  0  0  0  0
   -0.3724   -2.3989   -0.9148 C   0  0  0  0  0  0  0  0  0  0  0  0
    0.0709   -3.7040   -0.9754 C   0  0  0  0  0  0  0  0  0  0  0  0
    0.8444   -3.9702   -1.6806 H   0  0  0  0  0  0  0  0  0  0  0  0
    0.0466   -1.6573   -1.5791 H   0  0  0  0  0  0  0  0  0  0  0  0
   -1.8791   -0.6738    0.0473 C   0  0  0  0  0  0  0  0  0  0  0  0
   -3.1940   -0.2464    0.0848 C   0  0  0  0  0  0  0  0  0  0  0  0
   -3.1141    1.1520    0.0124 C   0  0  0  0  0  0  0  0  0  0  0  0
   -1.8579    1.5558   -0.0592 N   0  0  0  0  0  0  0  0  0  0  0  0
   -1.1157    0.4536   -0.0310 N   0  0  0  0  0  0  0  0  0  0  0  0
    0.2817    0.5780   -0.0167 C   0  0  0  0  0  0  0  0  0  0  0  0
    0.8613    1.6009   -0.7633 C   0  0  0  0  0  0  0  0  0  0  0  0
    2.2357    1.7524   -0.7597 C   0  0  0  0  0  0  0  0  0  0  0  0
    3.0089    0.8865   -0.0124 C   0  0  0  0  0  0  0  0  0  0  0  0
    2.4421   -0.1170    0.7477 C   0  0  0  0  0  0  0  0  0  0  0  0
    1.0680   -0.2734    0.7559 C   0  0  0  0  0  0  0  0  0  0  0  0
    0.6092   -1.0425    1.3567 H   0  0  0  0  0  0  0  0  0  0  0  0
    3.0868   -0.7654    1.3184 H   0  0  0  0  0  0  0  0  0  0  0  0
    4.7796    1.0959    0.0102 S   0  0  2  0  0  0  0  0  0  0  0  0
    5.1984    1.7317   -1.2033 O   0  0  0  0  0  0  0  0  0  0  0  0
    5.3959   -0.1317    0.4187 O   0  0  0  0  0  0  0  0  0  0  0  0
    4.9373    2.2028    1.2663 N   0  0  0  0  0  0  0  0  0  0  0  0
    5.3060    3.0848    0.9506 H   0  0  0  0  0  0  0  0  0  0  0  0
    5.4723    1.8311    2.0339 H   0  0  0  0  0  0  0  0  0  0  0  0
    2.7220    2.5194   -1.3403 H   0  0  0  0  0  0  0  0  0  0  0  0
    0.2225    2.2606   -1.3286 H   0  0  0  0  0  0  0  0  0  0  0  0
   -4.2373    2.1291    0.0161 C   0  0  1  0  0  0  0  0  0  0  0  0
   -5.4287    1.5112   -0.0424 F   0  0  0  0  0  0  0  0  0  0  0  0
   -4.2617    2.8888    1.1250 F   0  0  0  0  0  0  0  0  0  0  0  0
   -4.1961    2.9771   -1.0226 F   0  0  0  0  0  0  0  0  0  0  0  0
   -4.0800   -0.8440    0.1276 H   0  0  0  0  0  0  0  0  0  0  0  0
   -2.7001   -2.7491    1.5096 H   0  0  0  0  0  0  0  0  0  0  0  0
   -1.9032   -5.0691    1.3919 H   0  0  0  0  0  0  0  0  0  0  0  0
    1.1028   -6.1268   -0.3312 H   0  0  0  0  0  0  0  0  0  0  0  0
   -0.2714   -6.6649    0.6480 H   0  0  0  0  0  0  0  0  0  0  0  0
   -0.4083   -6.5832   -1.1087 H   0  0  0  0  0  0  0  0  0  0  0  0
  1  2  1  0
  1 38  1  0
  1 39  1  0
  1 40  1  0
  2  3  2  0
  2  7  1  0
  3  4  1  0
  3 37  1  0
  4  5  2  0
  4 36  1  0
  5  6  1  0
  5 10  1  0
  6  7  2  0
  6  9  1  0
  7  8  1  0
 10 11  2  0
 10 14  1  0
 11 12  1  0
 11 35  1  0
 12 13  2  0
 12 31  1  0
 13 14  1  0
 14 15  1  0
 15 16  2  0
 15 20  1  0
 16 17  1  0
 16 30  1  0
 17 18  2  0
 17 29  1  0
 18 19  1  0
 18 23  1  0
 19 20  2  0
 19 22  1  0
 20 21  1  0
 23 24  2  0
 23 25  2  0
 23 26  1  1
 26 27  1  0
 26 28  1  0
 31 32  1  6
 31 33  1  0
 31 34  1  0
M  END
$$$$

     RDKit          3D

 40 42  0  0  0  0  0  0  0  0999 V2000
   -0.2026   -6.0582   -0.2583 C   0  0  0  0  0  0  0  0  0  0  0  0
    0.3164   -4.6578   -0.1627 C   0  0  0  0  0  0  0  0  0  0  0  0
    1.3459   -4.3373    0.7143 C   0  0  0  0  0  0  0  0  0  0  0  0
    1.8401   -3.0496    0.7891 C   0  0  0  0  0  0  0  0  0  0  0  0
    1.3047   -2.0425   -0.0101 C   0  0  0  0  0  0  0  0  0  0  0  0
    0.2808   -2.3610   -0.9011 C   0  0  0  0  0  0  0  0  0  0  0  0
   -0.2027   -3.6519   -0.9710 C   0  0  0  0  0  0  0  0  0  0  0  0
   -0.9946   -3.8850   -1.6677 H   0  0  0  0  0  0  0  0  0  0  0  0
   -0.1267   -1.5980   -1.5482 H   0  0  0  0  0  0  0  0  0  0  0  0
    1.8578   -0.6959    0.0536 C   0  0  0  0  0  0  0  0  0  0  0  0
    3.1875   -0.3158    0.0621 C   0  0  0  0  0  0  0  0  0  0  0  0
    3.1557    1.0853    0.0067 C   0  0  0  0  0  0  0  0  0  0  0  0
    1.9134    1.5337   -0.0285 N   0  0  0  0  0  0  0  0  0  0  0  0
    1.1329    0.4585    0.0070 N   0  0  0  0  0  0  0  0  0  0  0  0
   -0.2582    0.6327    0.0588 C   0  0  0  0  0  0  0  0  0  0  0  0
   -1.0586   -0.2132    0.8231 C   0  0  0  0  0  0  0  0  0  0  0  0
   -2.4261   -0.0086    0.8490 C   0  0  0  0  0  0  0  0  0  0  0  0
   -2.9717    1.0394    0.1349 C   0  0  0  0  0  0  0  0  0  0  0  0
   -2.1824    1.9065   -0.5941 C   0  0  0  0  0  0  0  0  0  0  0  0
   -0.8150    1.7051   -0.6342 C   0  0  0  0  0  0  0  0  0  0  0  0
   -0.1632    2.3657   -1.1833 H   0  0  0  0  0  0  0  0  0  0  0  0
   -2.6490    2.7299   -1.1100 H   0  0  0  0  0  0  0  0  0  0  0  0
   -4.7409    1.2593    0.1361 S   0  0  2  0  0  0  0  0  0  0  0  0
   -5.0556    2.6270   -0.1482 O   0  0  0  0  0  0  0  0  0  0  0  0
   -5.3000    0.6226    1.2912 O   0  0  0  0  0  0  0  0  0  0  0  0
   -5.1516    0.3368   -1.2139 N   0  0  0  0  0  0  0  0  0  0  0  0
   -5.5613    0.9011   -1.9406 H   0  0  0  0  0  0  0  0  0  0  0  0
   -5.7495   -0.4358   -0.9694 H   0  0  0  0  0  0  0  0  0  0  0  0
   -3.0792   -0.6362    1.4333 H   0  0  0  0  0  0  0  0  0  0  0  0
   -0.6155   -1.0131    1.3947 H   0  0  0  0  0  0  0  0  0  0  0  0
    4.3133    2.0214   -0.0134 C   0  0  1  0  0  0  0  0  0  0  0  0
    4.2905    2.8562   -1.0639 F   0  0  0  0  0  0  0  0  0  0  0  0
    4.3789    2.7935    1.0839 F   0  0  0  0  0  0  0  0  0  0  0  0
    5.4805    1.3592   -0.0787 F   0  0  0  0  0  0  0  0  0  0  0  0
    4.0525   -0.9449    0.0765 H   0  0  0  0  0  0  0  0  0  0  0  0
    2.6351   -2.8125    1.4799 H   0  0  0  0  0  0  0  0  0  0  0  0
    1.7659   -5.1060    1.3464 H   0  0  0  0  0  0  0  0  0  0  0  0
   -1.2594   -6.0639   -0.5143 H   0  0  0  0  0  0  0  0  0  0  0  0
    0.3345   -6.5990   -1.0382 H   0  0  0  0  0  0  0  0  0  0  0  0
   -0.0606   -6.5909    0.6787 H   0  0  0  0  0  0  0  0  0  0  0  0
  1  2  1  0
  1 38  1  0
  1 39  1  0
  1 40  1  0
  2  3  2  0
  2  7  1  0
  3  4  1  0
  3 37  1  0
  4  5  2  0
  4 36  1  0
  5  6  1  0
  5 10  1  0
  6  7  2  0
  6  9  1  0
  7  8  1  0
 10 11  2  0
 10 14  1  0
 11 12  1  0
 11 35  1  0
 12 13  2  0
 12 31  1  0
 13 14  1  0
 14 15  1  0
 15 16  2  0
 15 20  1  0
 16 17  1  0
 16 30  1  0
 17 18  2  0
 17 29  1  0
 18 19  1  0
 18 23  1  0
 19 20  2  0
 19 22  1  0
 20 21  1  0
 23 24  2  0
 23 25  2  0
 23 26  1  6
 26 27  1  0
 26 28  1  0
 31 32  1  6
 31 33  1  0
 31 34  1  0
M  END
$$$$

     RDKit          3D

 40 42  0  0  0  0  0  0  0  0999 V2000
    0.1892    6.0527   -0.2660 C   0  0  0  0  0  0  0  0  0  0  0  0
   -0.3347    4.6545   -0.1652 C   0  0  0  0  0  0  0  0  0  0  0  0
   -1.3577    4.3302    0.7167 C   0  0  0  0  0  0  0  0  0  0  0  0
   -1.8452    3.0395    0.7951 C   0  0  0  0  0  0  0  0  0  0  0  0
   -1.3091    2.0344   -0.0052 C   0  0  0  0  0  0  0  0  0  0  0  0
   -0.2906    2.3568   -0.9018 C   0  0  0  0  0  0  0  0  0  0  0  0
    0.1858    3.6494   -0.9752 C   0  0  0  0  0  0  0  0  0  0  0  0
    0.9730    3.8872   -1.6758 H   0  0  0  0  0  0  0  0  0  0  0  0
    0.1169    1.5950   -1.5502 H   0  0  0  0  0  0  0  0  0  0  0  0
   -1.8565    0.6857    0.0614 C   0  0  0  0  0  0  0  0  0  0  0  0
   -3.1842    0.3004    0.0768 C   0  0  0  0  0  0  0  0  0  0  0  0
   -3.1470   -1.1014    0.0232 C   0  0  0  0  0  0  0  0  0  0  0  0
   -1.9042   -1.5446   -0.0218 N   0  0  0  0  0  0  0  0  0  0  0  0
   -1.1273   -0.4664    0.0105 N   0  0  0  0  0  0  0  0  0  0  0  0
    0.2643   -0.6359    0.0604 C   0  0  0  0  0  0  0  0  0  0  0  0
    0.8235   -1.7103   -0.6278 C   0  0  0  0  0  0  0  0  0  0  0  0
    2.1915   -1.9074   -0.5887 C   0  0  0  0  0  0  0  0  0  0  0  0
    2.9794   -1.0343    0.1344 C   0  0  0  0  0  0  0  0  0  0  0  0
    2.4317    0.0158    0.8440 C   0  0  0  0  0  0  0  0  0  0  0  0
    1.0636    0.2162    0.8191 C   0  0  0  0  0  0  0  0  0  0  0  0
    0.6191    1.0175    1.3877 H   0  0  0  0  0  0  0  0  0  0  0  0
    3.0838    0.6482    1.4241 H   0  0  0  0  0  0  0  0  0  0  0  0
    4.7493   -1.2494    0.1353 S   0  0  2  0  0  0  0  0  0  0  0  0
    5.0671   -2.6181   -0.1405 O   0  0  0  0  0  0  0  0  0  0  0  0
    5.3078   -0.6039    1.2857 O   0  0  0  0  0  0  0  0  0  0  0  0
    5.1564   -0.3340   -1.2205 N   0  0  0  0  0  0  0  0  0  0  0  0
    5.5598   -0.9027   -1.9474 H   0  0  0  0  0  0  0  0  0  0  0  0
    5.7584    0.4374   -0.9826 H   0  0  0  0  0  0  0  0  0  0  0  0
    2.6596   -2.7324   -1.1007 H   0  0  0  0  0  0  0  0  0  0  0  0
    0.1729   -2.3762   -1.1718 H   0  0  0  0  0  0  0  0  0  0  0  0
   -4.3134   -2.0253   -0.0114 C   0  0  1  0  0  0  0  0  0  0  0  0
   -4.0079   -3.2829    0.3137 F   0  0  0  0  0  0  0  0  0  0  0  0
   -5.2852   -1.6285    0.8311 F   0  0  0  0  0  0  0  0  0  0  0  0
   -4.8849   -2.0715   -1.2328 F   0  0  0  0  0  0  0  0  0  0  0  0
   -4.0512    0.9265    0.0996 H   0  0  0  0  0  0  0  0  0  0  0  0
   -2.6361    2.7996    1.4899 H   0  0  0  0  0  0  0  0  0  0  0  0
   -1.7794    5.0968    1.3502 H   0  0  0  0  0  0  0  0  0  0  0  0
   -0.1432    6.5090   -1.1983 H   0  0  0  0  0  0  0  0  0  0  0  0
   -0.1658    6.6637    0.5597 H   0  0  0  0  0  0  0  0  0  0  0  0
    1.2775    6.0554   -0.2654 H   0  0  0  0  0  0  0  0  0  0  0  0
  1  2  1  0
  1 38  1  0
  1 39  1  0
  1 40  1  0
  2  3  2  0
  2  7  1  0
  3  4  1  0
  3 37  1  0
  4  5  2  0
  4 36  1  0
  5  6  1  0
  5 10  1  0
  6  7  2  0
  6  9  1  0
  7  8  1  0
 10 11  2  0
 10 14  1  0
 11 12  1  0
 11 35  1  0
 12 13  2  0
 12 31  1  0
 13 14  1  0
 14 15  1  0
 15 16  2  0
 15 20  1  0
 16 17  1  0
 16 30  1  0
 17 18  2  0
 17 29  1  0
 18 19  1  0
 18 23  1  0
 19 20  2  0
 19 22  1  0
 20 21  1  0
 23 24  2  0
 23 25  2  0
 23 26  1  6
 26 27  1  0
 26 28  1  0
 31 32  1  1
 31 33  1  0
 31 34  1  0
M  END
$$$$

     RDKit          3D

 40 42  0  0  0  0  0  0  0  0999 V2000
    0.0129   -6.0980   -0.2056 C   0  0  0  0  0  0  0  0  0  0  0  0
   -0.4846   -4.6879   -0.1545 C   0  0  0  0  0  0  0  0  0  0  0  0
   -1.4928   -4.3225    0.7306 C   0  0  0  0  0  0  0  0  0  0  0  0
   -1.9408   -3.0180    0.7977 C   0  0  0  0  0  0  0  0  0  0  0  0
   -1.3795   -2.0381   -0.0181 C   0  0  0  0  0  0  0  0  0  0  0  0
   -0.3773   -2.4013   -0.9165 C   0  0  0  0  0  0  0  0  0  0  0  0
    0.0606   -3.7091   -0.9781 C   0  0  0  0  0  0  0  0  0  0  0  0
    0.8359   -3.9755   -1.6812 H   0  0  0  0  0  0  0  0  0  0  0  0
    0.0471   -1.6613   -1.5791 H   0  0  0  0  0  0  0  0  0  0  0  0
   -1.8837   -0.6726    0.0391 C   0  0  0  0  0  0  0  0  0  0  0  0
   -3.1968   -0.2397    0.0769 C   0  0  0  0  0  0  0  0  0  0  0  0
   -3.1116    1.1584    0.0058 C   0  0  0  0  0  0  0  0  0  0  0  0
   -1.8539    1.5577   -0.0640 N   0  0  0  0  0  0  0  0  0  0  0  0
   -1.1161    0.4520   -0.0379 N   0  0  0  0  0  0  0  0  0  0  0  0
    0.2812    0.5729   -0.0227 C   0  0  0  0  0  0  0  0  0  0  0  0
    0.8640    1.5902   -0.7747 C   0  0  0  0  0  0  0  0  0  0  0  0
    2.2385    1.7412   -0.7670 C   0  0  0  0  0  0  0  0  0  0  0  0
    3.0098    0.8817   -0.0093 C   0  0  0  0  0  0  0  0  0  0  0  0
    2.4388   -0.1180    0.7536 C   0  0  0  0  0  0  0  0  0  0  0  0
    1.0645   -0.2749    0.7570 C   0  0  0  0  0  0  0  0  0  0  0  0
    0.6034   -1.0421    1.3584 H   0  0  0  0  0  0  0  0  0  0  0  0
    3.0820   -0.7656    1.3277 H   0  0  0  0  0  0  0  0  0  0  0  0
    4.7913    1.0903    0.0165 S   0  0  2  0  0  0  0  0  0  0  0  0
    5.2043    1.6871   -1.2136 O   0  0  0  0  0  0  0  0  0  0  0  0
    5.3885   -0.1270    0.4673 O   0  0  0  0  0  0  0  0  0  0  0  0
    5.0461    2.2234    1.2103 N   0  0  0  0  0  0  0  0  0  0  0  0
    4.8271    1.9144    2.1410 H   0  0  0  0  0  0  0  0  0  0  0  0
    4.7089    3.1456    0.9969 H   0  0  0  0  0  0  0  0  0  0  0  0
    2.7268    2.5008   -1.3565 H   0  0  0  0  0  0  0  0  0  0  0  0
    0.2279    2.2453   -1.3484 H   0  0  0  0  0  0  0  0  0  0  0  0
   -4.2310    2.1397    0.0193 C   0  0  1  0  0  0  0  0  0  0  0  0
   -5.4177    1.5379   -0.1642 F   0  0  0  0  0  0  0  0  0  0  0  0
   -4.3232    2.8011    1.1878 F   0  0  0  0  0  0  0  0  0  0  0  0
   -4.1221    3.0732   -0.9360 F   0  0  0  0  0  0  0  0  0  0  0  0
   -4.0852   -0.8339    0.1176 H   0  0  0  0  0  0  0  0  0  0  0  0
   -2.7216   -2.7469    1.4924 H   0  0  0  0  0  0  0  0  0  0  0  0
   -1.9337   -5.0706    1.3731 H   0  0  0  0  0  0  0  0  0  0  0  0
    0.7968   -6.2408    0.5389 H   0  0  0  0  0  0  0  0  0  0  0  0
   -0.7879   -6.8006    0.0127 H   0  0  0  0  0  0  0  0  0  0  0  0
    0.4313   -6.3278   -1.1823 H   0  0  0  0  0  0  0  0  0  0  0  0
  1  2  1  0
  1 38  1  0
  1 39  1  0
  1 40  1  0
  2  3  2  0
  2  7  1  0
  3  4  1  0
  3 37  1  0
  4  5  2  0
  4 36  1  0
  5  6  1  0
  5 10  1  0
  6  7  2  0
  6  9  1  0
  7  8  1  0
 10 11  2  0
 10 14  1  0
 11 12  1  0
 11 35  1  0
 12 13  2  0
 12 31  1  0
 13 14  1  0
 14 15  1  0
 15 16  2  0
 15 20  1  0
 16 17  1  0
 16 30  1  0
 17 18  2  0
 17 29  1  0
 18 19  1  0
 18 23  1  0
 19 20  2  0
 19 22  1  0
 20 21  1  0
 23 24  2  0
 23 25  2  0
 23 26  1  1
 26 27  1  0
 26 28  1  0
 31 32  1  6
 31 33  1  0
 31 34  1  0
M  END
$$$$

     RDKit          3D

 40 42  0  0  0  0  0  0  0  0999 V2000
   -0.0745   -6.0828    0.2577 C   0  0  0  0  0  0  0  0  0  0  0  0
    0.4178   -4.6728    0.1649 C   0  0  0  0  0  0  0  0  0  0  0  0
   -0.1120   -3.6810    0.9837 C   0  0  0  0  0  0  0  0  0  0  0  0
    0.3462   -2.3809    0.9149 C   0  0  0  0  0  0  0  0  0  0  0  0
    1.3543   -2.0384    0.0148 C   0  0  0  0  0  0  0  0  0  0  0  0
    1.9013   -3.0314   -0.7942 C   0  0  0  0  0  0  0  0  0  0  0  0
    1.4325   -4.3286   -0.7205 C   0  0  0  0  0  0  0  0  0  0  0  0
    1.8605   -5.0863   -1.3606 H   0  0  0  0  0  0  0  0  0  0  0  0
    2.6844   -2.7759   -1.4922 H   0  0  0  0  0  0  0  0  0  0  0  0
    1.8775   -0.6801   -0.0502 C   0  0  0  0  0  0  0  0  0  0  0  0
    3.1979   -0.2686   -0.0729 C   0  0  0  0  0  0  0  0  0  0  0  0
    3.1338    1.1311   -0.0134 C   0  0  0  0  0  0  0  0  0  0  0  0
    1.8815    1.5503    0.0376 N   0  0  0  0  0  0  0  0  0  0  0  0
    1.1266    0.4568    0.0080 N   0  0  0  0  0  0  0  0  0  0  0  0
   -0.2688    0.5989   -0.0264 C   0  0  0  0  0  0  0  0  0  0  0  0
   -1.0605   -0.2582   -0.7868 C   0  0  0  0  0  0  0  0  0  0  0  0
   -2.4318   -0.0808   -0.7943 C   0  0  0  0  0  0  0  0  0  0  0  0
   -2.9959    0.9495   -0.0655 C   0  0  0  0  0  0  0  0  0  0  0  0
   -2.2154    1.8237    0.6630 C   0  0  0  0  0  0  0  0  0  0  0  0
   -0.8427    1.6493    0.6839 C   0  0  0  0  0  0  0  0  0  0  0  0
   -0.2004    2.3172    1.2357 H   0  0  0  0  0  0  0  0  0  0  0  0
   -2.6837    2.6256    1.2096 H   0  0  0  0  0  0  0  0  0  0  0  0
   -4.7760    1.0943   -0.1329 S   0  0  2  0  0  0  0  0  0  0  0  0
   -5.3457   -0.0961    0.4273 O   0  0  0  0  0  0  0  0  0  0  0  0
   -5.1540    1.4863   -1.4581 O   0  0  0  0  0  0  0  0  0  0  0  0
   -5.0884    2.3744    0.9131 N   0  0  0  0  0  0  0  0  0  0  0  0
   -5.6586    2.0820    1.6903 H   0  0  0  0  0  0  0  0  0  0  0  0
   -5.4985    3.1550    0.4260 H   0  0  0  0  0  0  0  0  0  0  0  0
   -3.0759   -0.7289   -1.3663 H   0  0  0  0  0  0  0  0  0  0  0  0
   -0.6090   -1.0467   -1.3676 H   0  0  0  0  0  0  0  0  0  0  0  0
    4.2678    2.0956   -0.0028 C   0  0  1  0  0  0  0  0  0  0  0  0
    4.2474    2.9116    1.0632 F   0  0  0  0  0  0  0  0  0  0  0  0
    5.4528    1.4636    0.0248 F   0  0  0  0  0  0  0  0  0  0  0  0
    4.2883    2.8892   -1.0865 F   0  0  0  0  0  0  0  0  0  0  0  0
    4.0770   -0.8772   -0.0994 H   0  0  0  0  0  0  0  0  0  0  0  0
   -0.0695   -1.6291    1.5697 H   0  0  0  0  0  0  0  0  0  0  0  0
   -0.8931   -3.9317    1.6862 H   0  0  0  0  0  0  0  0  0  0  0  0
    0.0538   -6.6030   -0.6884 H   0  0  0  0  0  0  0  0  0  0  0  0
    0.4907   -6.6226    1.0182 H   0  0  0  0  0  0  0  0  0  0  0  0
   -1.1245   -6.1092    0.5389 H   0  0  0  0  0  0  0  0  0  0  0  0
  1  2  1  0
  1 38  1  0
  1 39  1  0
  1 40  1  0
  2  3  2  0
  2  7  1  0
  3  4  1  0
  3 37  1  0
  4  5  2  0
  4 36  1  0
  5  6  1  0
  5 10  1  0
  6  7  2  0
  6  9  1  0
  7  8  1  0
 10 11  2  0
 10 14  1  0
 11 12  1  0
 11 35  1  0
 12 13  2  0
 12 31  1  0
 13 14  1  0
 14 15  1  0
 15 16  2  0
 15 20  1  0
 16 17  1  0
 16 30  1  0
 17 18  2  0
 17 29  1  0
 18 19  1  0
 18 23  1  0
 19 20  2  0
 19 22  1  0
 20 21  1  0
 23 24  2  0
 23 25  2  0
 23 26  1  1
 26 27  1  0
 26 28  1  0
 31 32  1  1
 31 33  1  0
 31 34  1  0
M  END
$$$$

     RDKit          3D

 40 42  0  0  0  0  0  0  0  0999 V2000
    0.1444    6.0711    0.2363 C   0  0  0  0  0  0  0  0  0  0  0  0
   -0.3822    4.6720    0.1715 C   0  0  0  0  0  0  0  0  0  0  0  0
   -1.3900    4.3326   -0.7238 C   0  0  0  0  0  0  0  0  0  0  0  0
   -1.8647    3.0380   -0.8018 C   0  0  0  0  0  0  0  0  0  0  0  0
   -1.3303    2.0420    0.0119 C   0  0  0  0  0  0  0  0  0  0  0  0
   -0.3280    2.3790    0.9201 C   0  0  0  0  0  0  0  0  0  0  0  0
    0.1361    3.6771    0.9935 C   0  0  0  0  0  0  0  0  0  0  0  0
    0.9092    3.9255    1.7061 H   0  0  0  0  0  0  0  0  0  0  0  0
    0.0746    1.6243    1.5802 H   0  0  0  0  0  0  0  0  0  0  0  0
   -1.8658    0.6882   -0.0523 C   0  0  0  0  0  0  0  0  0  0  0  0
   -3.1907    0.2927   -0.0651 C   0  0  0  0  0  0  0  0  0  0  0  0
   -3.1430   -1.1081   -0.0082 C   0  0  0  0  0  0  0  0  0  0  0  0
   -1.8959   -1.5419    0.0315 N   0  0  0  0  0  0  0  0  0  0  0  0
   -1.1273   -0.4579   -0.0021 N   0  0  0  0  0  0  0  0  0  0  0  0
    0.2650   -0.6193   -0.0513 C   0  0  0  0  0  0  0  0  0  0  0  0
    0.8256   -1.7058    0.6173 C   0  0  0  0  0  0  0  0  0  0  0  0
    2.1939   -1.9005    0.5755 C   0  0  0  0  0  0  0  0  0  0  0  0
    2.9833   -1.0117   -0.1282 C   0  0  0  0  0  0  0  0  0  0  0  0
    2.4331    0.0513   -0.8172 C   0  0  0  0  0  0  0  0  0  0  0  0
    1.0643    0.2486   -0.7917 C   0  0  0  0  0  0  0  0  0  0  0  0
    0.6201    1.0579   -1.3487 H   0  0  0  0  0  0  0  0  0  0  0  0
    3.0852    0.6942   -1.3864 H   0  0  0  0  0  0  0  0  0  0  0  0
    4.7633   -1.2338   -0.1416 S   0  0  2  0  0  0  0  0  0  0  0  0
    5.3099   -0.5065   -1.2429 O   0  0  0  0  0  0  0  0  0  0  0  0
    5.0621   -2.6183    0.0369 O   0  0  0  0  0  0  0  0  0  0  0  0
    5.2678   -0.4545    1.2438 N   0  0  0  0  0  0  0  0  0  0  0  0
    4.9908   -0.8957    2.1029 H   0  0  0  0  0  0  0  0  0  0  0  0
    5.1467    0.5429    1.2378 H   0  0  0  0  0  0  0  0  0  0  0  0
    2.6603   -2.7399    1.0662 H   0  0  0  0  0  0  0  0  0  0  0  0
    0.1751   -2.3843    1.1455 H   0  0  0  0  0  0  0  0  0  0  0  0
   -4.2896   -2.0579    0.0102 C   0  0  1  0  0  0  0  0  0  0  0  0
   -4.3444   -2.8302   -1.0872 F   0  0  0  0  0  0  0  0  0  0  0  0
   -4.2571   -2.8922    1.0608 F   0  0  0  0  0  0  0  0  0  0  0  0
   -5.4643   -1.4093    0.0748 F   0  0  0  0  0  0  0  0  0  0  0  0
   -4.0626    0.9119   -0.0832 H   0  0  0  0  0  0  0  0  0  0  0  0
   -2.6455    2.7870   -1.5039 H   0  0  0  0  0  0  0  0  0  0  0  0
   -1.8099    5.0932   -1.3655 H   0  0  0  0  0  0  0  0  0  0  0  0
   -0.6301    6.7897   -0.0204 H   0  0  0  0  0  0  0  0  0  0  0  0
    0.5247    6.2983    1.2292 H   0  0  0  0  0  0  0  0  0  0  0  0
    0.9631    6.1919   -0.4740 H   0  0  0  0  0  0  0  0  0  0  0  0
  1  2  1  0
  1 38  1  0
  1 39  1  0
  1 40  1  0
  2  3  2  0
  2  7  1  0
  3  4  1  0
  3 37  1  0
  4  5  2  0
  4 36  1  0
  5  6  1  0
  5 10  1  0
  6  7  2  0
  6  9  1  0
  7  8  1  0
 10 11  2  0
 10 14  1  0
 11 12  1  0
 11 35  1  0
 12 13  2  0
 12 31  1  0
 13 14  1  0
 14 15  1  0
 15 16  2  0
 15 20  1  0
 16 17  1  0
 16 30  1  0
 17 18  2  0
 17 29  1  0
 18 19  1  0
 18 23  1  0
 19 20  2  0
 19 22  1  0
 20 21  1  0
 23 24  2  0
 23 25  2  0
 23 26  1  1
 26 27  1  0
 26 28  1  0
 31 32  1  6
 31 33  1  0
 31 34  1  0
M  END
$$$$
