
     RDKit          3D

 18 17  0  0  0  0  0  0  0  0999 V2000
    2.1459    0.0135    0.0247 C   0  0  0  0  0  0  0  0  0  0  0  0
    2.2979   -0.8970    0.5975 H   0  0  0  0  0  0  0  0  0  0  0  0
    2.0854   -0.2469   -1.0296 H   0  0  0  0  0  0  0  0  0  0  0  0
    0.8704    0.7266    0.4598 C   0  0  0  0  0  0  0  0  0  0  0  0
    0.8571    0.8381    1.5452 H   0  0  0  0  0  0  0  0  0  0  0  0
    0.8598    1.7310    0.0245 H   0  0  0  0  0  0  0  0  0  0  0  0
   -0.4171    0.0011    0.0174 C   0  0  1  0  0  0  0  0  0  0  0  0
   -0.4901   -1.4155    0.5864 C   0  0  0  0  0  0  0  0  0  0  0  0
   -1.4546   -1.8544    0.3459 H   0  0  0  0  0  0  0  0  0  0  0  0
    0.2824   -2.0322    0.1383 H   0  0  0  0  0  0  0  0  0  0  0  0
   -0.3632   -1.3992    1.6649 H   0  0  0  0  0  0  0  0  0  0  0  0
   -1.6350    0.8127    0.4807 C   0  0  0  0  0  0  0  0  0  0  0  0
   -1.6796    0.8451    1.5657 H   0  0  0  0  0  0  0  0  0  0  0  0
   -2.5469    0.3542    0.1054 H   0  0  0  0  0  0  0  0  0  0  0  0
   -1.5818    1.8341    0.1057 H   0  0  0  0  0  0  0  0  0  0  0  0
   -0.4406   -0.1399   -1.3951 O   0  0  0  0  0  0  0  0  0  0  0  0
   -0.4210    0.7386   -1.7903 H   0  0  0  0  0  0  0  0  0  0  0  0
    3.0081    0.6593    0.1757 H   0  0  0  0  0  0  0  0  0  0  0  0
  1  2  1  0
  1  3  1  0
  1  4  1  0
  1 18  1  0
  4  5  1  0
  4  6  1  0
  4  7  1  0
  7  8  1  0
  7 12  1  0
  7 16  1  6
  8  9  1  0
  8 10  1  0
  8 11  1  0
 12 13  1  0
 12 14  1  0
 12 15  1  0
 16 17  1  0
M  END
$$$$

     RDKit          3D

 18 17  0  0  0  0  0  0  0  0999 V2000
   -2.1837    0.0488   -0.0008 C   0  0  0  0  0  0  0  0  0  0  0  0
   -2.2417    0.6681   -0.8919 H   0  0  0  0  0  0  0  0  0  0  0  0
   -3.0483   -0.6111    0.0067 H   0  0  0  0  0  0  0  0  0  0  0  0
   -0.9112   -0.7865    0.0106 C   0  0  0  0  0  0  0  0  0  0  0  0
   -0.8985   -1.4222    0.8978 H   0  0  0  0  0  0  0  0  0  0  0  0
   -0.8985   -1.4461   -0.8590 H   0  0  0  0  0  0  0  0  0  0  0  0
    0.4072    0.0043   -0.0001 C   0  0  1  0  0  0  0  0  0  0  0  0
    0.5498    0.8548   -1.2673 C   0  0  0  0  0  0  0  0  0  0  0  0
    0.4432    0.2284   -2.1497 H   0  0  0  0  0  0  0  0  0  0  0  0
   -0.2018    1.6377   -1.2942 H   0  0  0  0  0  0  0  0  0  0  0  0
    1.5327    1.3242   -1.2941 H   0  0  0  0  0  0  0  0  0  0  0  0
    0.5483    0.8914    1.2420 C   0  0  0  0  0  0  0  0  0  0  0  0
   -0.2032    1.6748    1.2450 H   0  0  0  0  0  0  0  0  0  0  0  0
    1.5311    1.3612    1.2565 H   0  0  0  0  0  0  0  0  0  0  0  0
    0.4404    0.2910    2.1422 H   0  0  0  0  0  0  0  0  0  0  0  0
    1.4145   -1.0012    0.0152 O   0  0  0  0  0  0  0  0  0  0  0  0
    2.2773   -0.5721    0.0098 H   0  0  0  0  0  0  0  0  0  0  0  0
   -2.2430    0.6900    0.8747 H   0  0  0  0  0  0  0  0  0  0  0  0
  1  2  1  0
  1  3  1  0
  1  4  1  0
  1 18  1  0
  4  5  1  0
  4  6  1  0
  4  7  1  0
  7  8  1  0
  7 12  1  0
  7 16  1  1
  8  9  1  0
  8 10  1  0
  8 11  1  0
 12 13  1  0
 12 14  1  0
 12 15  1  0
 16 17  1  0
M  END
$$$$

     RDKit          3D

 18 17  0  0  0  0  0  0  0  0999 V2000
   -2.1465   -0.0015    0.0291 C   0  0  0  0  0  0  0  0  0  0  0  0
   -2.2775    0.9459    0.5455 H   0  0  0  0  0  0  0  0  0  0  0  0
   -2.1060    0.1813   -1.0410 H   0  0  0  0  0  0  0  0  0  0  0  0
   -0.8708   -0.7044    0.4776 C   0  0  0  0  0  0  0  0  0  0  0  0
   -0.8537   -0.7907    1.5653 H   0  0  0  0  0  0  0  0  0  0  0  0
   -0.8583   -1.7104    0.0547 H   0  0  0  0  0  0  0  0  0  0  0  0
    0.4162   -0.0012    0.0161 C   0  0  1  0  0  0  0  0  0  0  0  0
    0.4875    1.4448    0.5213 C   0  0  0  0  0  0  0  0  0  0  0  0
    0.3476    1.4775    1.5982 H   0  0  0  0  0  0  0  0  0  0  0  0
    1.4582    1.8793    0.2853 H   0  0  0  0  0  0  0  0  0  0  0  0
   -0.2813    2.0468    0.0450 H   0  0  0  0  0  0  0  0  0  0  0  0
    1.6340   -0.7825    0.5299 C   0  0  0  0  0  0  0  0  0  0  0  0
    1.6416   -0.8039    1.6161 H   0  0  0  0  0  0  0  0  0  0  0  0
    2.5573   -0.3176    0.1865 H   0  0  0  0  0  0  0  0  0  0  0  0
    1.6041   -1.8039    0.1581 H   0  0  0  0  0  0  0  0  0  0  0  0
    0.3968   -0.0224   -1.4041 O   0  0  0  0  0  0  0  0  0  0  0  0
    1.1933    0.4132   -1.7257 H   0  0  0  0  0  0  0  0  0  0  0  0
   -3.0094   -0.6278    0.2434 H   0  0  0  0  0  0  0  0  0  0  0  0
  1  2  1  0
  1  3  1  0
  1  4  1  0
  1 18  1  0
  4  5  1  0
  4  6  1  0
  4  7  1  0
  7  8  1  0
  7 12  1  0
  7 16  1  6
  8  9  1  0
  8 10  1  0
  8 11  1  0
 12 13  1  0
 12 14  1  0
 12 15  1  0
 16 17  1  0
M  END
$$$$

     RDKit          3D

 18 17  0  0  0  0  0  0  0  0999 V2000
    2.1859    0.0134   -0.0388 C   0  0  0  0  0  0  0  0  0  0  0  0
    2.2428   -0.7640   -0.7962 H   0  0  0  0  0  0  0  0  0  0  0  0
    2.2388    0.9820   -0.5278 H   0  0  0  0  0  0  0  0  0  0  0  0
    0.9124   -0.1150    0.7873 C   0  0  0  0  0  0  0  0  0  0  0  0
    0.9196   -1.0823    1.3004 H   0  0  0  0  0  0  0  0  0  0  0  0
    0.9012    0.6621    1.5554 H   0  0  0  0  0  0  0  0  0  0  0  0
   -0.4058   -0.0018   -0.0044 C   0  0  1  0  0  0  0  0  0  0  0  0
   -0.5336    1.3520   -0.7015 C   0  0  0  0  0  0  0  0  0  0  0  0
   -0.3846    2.1532    0.0170 H   0  0  0  0  0  0  0  0  0  0  0  0
    0.1900    1.4454   -1.5047 H   0  0  0  0  0  0  0  0  0  0  0  0
   -1.5348    1.4446   -1.1133 H   0  0  0  0  0  0  0  0  0  0  0  0
   -0.5451   -1.1398   -1.0222 C   0  0  0  0  0  0  0  0  0  0  0  0
    0.1822   -1.0366   -1.8214 H   0  0  0  0  0  0  0  0  0  0  0  0
   -1.5422   -1.1149   -1.4562 H   0  0  0  0  0  0  0  0  0  0  0  0
   -0.4011   -2.1059   -0.5400 H   0  0  0  0  0  0  0  0  0  0  0  0
   -1.4887   -0.0560    0.9184 O   0  0  0  0  0  0  0  0  0  0  0  0
   -1.4657   -0.9061    1.3712 H   0  0  0  0  0  0  0  0  0  0  0  0
    3.0530   -0.0847    0.6109 H   0  0  0  0  0  0  0  0  0  0  0  0
  1  2  1  0
  1  3  1  0
  1  4  1  0
  1 18  1  0
  4  5  1  0
  4  6  1  0
  4  7  1  0
  7  8  1  0
  7 12  1  0
  7 16  1  1
  8  9  1  0
  8 10  1  0
  8 11  1  0
 12 13  1  0
 12 14  1  0
 12 15  1  0
 16 17  1  0
M  END
$$$$

     RDKit          3D

 18 17  0  0  0  0  0  0  0  0999 V2000
    2.1698    0.0176   -0.0140 C   0  0  0  0  0  0  0  0  0  0  0  0
    3.0258    0.6017   -0.3440 H   0  0  0  0  0  0  0  0  0  0  0  0
    2.2166   -0.0539    1.0714 H   0  0  0  0  0  0  0  0  0  0  0  0
    0.8814    0.6994   -0.4655 C   0  0  0  0  0  0  0  0  0  0  0  0
    0.8646    1.7145   -0.0631 H   0  0  0  0  0  0  0  0  0  0  0  0
    0.8738    0.7697   -1.5545 H   0  0  0  0  0  0  0  0  0  0  0  0
   -0.4188   -0.0016   -0.0159 C   0  0  1  0  0  0  0  0  0  0  0  0
   -1.6196    0.8187   -0.4927 C   0  0  0  0  0  0  0  0  0  0  0  0
   -2.5386    0.3528   -0.1484 H   0  0  0  0  0  0  0  0  0  0  0  0
   -1.5687    1.8207   -0.0760 H   0  0  0  0  0  0  0  0  0  0  0  0
   -1.6330    0.8812   -1.5769 H   0  0  0  0  0  0  0  0  0  0  0  0
   -0.5096   -1.4248   -0.5796 C   0  0  0  0  0  0  0  0  0  0  0  0
   -1.4653   -1.8652   -0.3048 H   0  0  0  0  0  0  0  0  0  0  0  0
    0.2813   -2.0551   -0.1781 H   0  0  0  0  0  0  0  0  0  0  0  0
   -0.4288   -1.4099   -1.6630 H   0  0  0  0  0  0  0  0  0  0  0  0
   -0.5093   -0.0308    1.3997 O   0  0  0  0  0  0  0  0  0  0  0  0
    0.1988   -0.5890    1.7382 H   0  0  0  0  0  0  0  0  0  0  0  0
    2.2618   -0.9799   -0.4371 H   0  0  0  0  0  0  0  0  0  0  0  0
  1  2  1  0
  1  3  1  0
  1  4  1  0
  1 18  1  0
  4  5  1  0
  4  6  1  0
  4  7  1  0
  7  8  1  0
  7 12  1  0
  7 16  1  1
  8  9  1  0
  8 10  1  0
  8 11  1  0
 12 13  1  0
 12 14  1  0
 12 15  1  0
 16 17  1  0
M  END
$$$$
