
     RDKit          3D

 19 19  0  0  0  0  0  0  0  0999 V2000
   -2.6106   -0.3776    0.5804 C   0  0  0  0  0  0  0  0  0  0  0  0
   -2.5227   -1.4378    0.8072 H   0  0  0  0  0  0  0  0  0  0  0  0
   -3.6415   -0.1670    0.3103 H   0  0  0  0  0  0  0  0  0  0  0  0
   -2.3604    0.1946    1.4702 H   0  0  0  0  0  0  0  0  0  0  0  0
   -1.6855    0.0130   -0.5698 C   0  0  0  0  0  0  0  0  0  0  0  0
   -0.2944   -0.1680   -0.2457 N   0  0  0  0  0  0  0  0  0  0  0  0
    0.5492    0.8556    0.0098 C   0  0  0  0  0  0  0  0  0  0  0  0
    0.2659    2.0311   -0.0475 O   0  0  0  0  0  0  0  0  0  0  0  0
    1.8979    0.2549    0.3829 C   0  0  0  0  0  0  0  0  0  0  0  0
    2.7124    0.8126   -0.0742 H   0  0  0  0  0  0  0  0  0  0  0  0
    1.7999   -1.1939   -0.0903 C   0  0  0  0  0  0  0  0  0  0  0  0
    2.3572   -1.8848    0.5390 H   0  0  0  0  0  0  0  0  0  0  0  0
    2.1743   -1.2777   -1.1111 H   0  0  0  0  0  0  0  0  0  0  0  0
    0.2936   -1.4742   -0.0627 C   0  0  0  0  0  0  0  0  0  0  0  0
   -0.0262   -2.1509   -0.8601 H   0  0  0  0  0  0  0  0  0  0  0  0
   -0.0115   -1.9049    0.9002 H   0  0  0  0  0  0  0  0  0  0  0  0
    2.0068    0.3213    1.4674 H   0  0  0  0  0  0  0  0  0  0  0  0
   -1.8090    1.0736   -0.8028 H   0  0  0  0  0  0  0  0  0  0  0  0
   -1.9238   -0.5793   -1.4610 H   0  0  0  0  0  0  0  0  0  0  0  0
  1  2  1  0
  1  3  1  0
  1  4  1  0
  1  5  1  0
  5  6  1  0
  5 18  1  0
  5 19  1  0
  6  7  1  0
  6 14  1  0
  7  8  2  0
  7  9  1  0
  9 10  1  0
  9 11  1  0
  9 17  1  0
 11 12  1  0
 11 13  1  0
 11 14  1  0
 14 15  1  0
 14 16  1  0
M  END
$$$$

     RDKit          3D

 19 19  0  0  0  0  0  0  0  0999 V2000
   -2.5989   -0.3931    0.6087 C   0  0  0  0  0  0  0  0  0  0  0  0
   -3.6343   -0.1568    0.3795 H   0  0  0  0  0  0  0  0  0  0  0  0
   -2.3224    0.1101    1.5316 H   0  0  0  0  0  0  0  0  0  0  0  0
   -2.5157   -1.4675    0.7567 H   0  0  0  0  0  0  0  0  0  0  0  0
   -1.6978    0.0764   -0.5305 C   0  0  0  0  0  0  0  0  0  0  0  0
   -0.3016   -0.1458   -0.2525 N   0  0  0  0  0  0  0  0  0  0  0  0
    0.5742    0.8537   -0.0119 C   0  0  0  0  0  0  0  0  0  0  0  0
    0.2956    2.0298    0.0570 O   0  0  0  0  0  0  0  0  0  0  0  0
    1.9565    0.2305    0.1275 C   0  0  0  0  0  0  0  0  0  0  0  0
    2.5072    0.4303   -0.7939 H   0  0  0  0  0  0  0  0  0  0  0  0
    1.6764   -1.2593    0.3128 C   0  0  0  0  0  0  0  0  0  0  0  0
    1.6117   -1.4962    1.3753 H   0  0  0  0  0  0  0  0  0  0  0  0
    2.4390   -1.8931   -0.1352 H   0  0  0  0  0  0  0  0  0  0  0  0
    0.3066   -1.4521   -0.3467 C   0  0  0  0  0  0  0  0  0  0  0  0
    0.4041   -1.7488   -1.4007 H   0  0  0  0  0  0  0  0  0  0  0  0
   -0.3005   -2.2024    0.1652 H   0  0  0  0  0  0  0  0  0  0  0  0
    2.5047    0.6795    0.9529 H   0  0  0  0  0  0  0  0  0  0  0  0
   -1.8146    1.1539   -0.6728 H   0  0  0  0  0  0  0  0  0  0  0  0
   -1.9646   -0.4383   -1.4609 H   0  0  0  0  0  0  0  0  0  0  0  0
  1  2  1  0
  1  3  1  0
  1  4  1  0
  1  5  1  0
  5  6  1  0
  5 18  1  0
  5 19  1  0
  6  7  1  0
  6 14  1  0
  7  8  2  0
  7  9  1  0
  9 10  1  0
  9 11  1  0
  9 17  1  0
 11 12  1  0
 11 13  1  0
 11 14  1  0
 14 15  1  0
 14 16  1  0
M  END
$$$$
