
     RDKit          3D

 18 18  0  0  0  0  0  0  0  0999 V2000
   -1.7735   -1.3132    0.0274 O   0  0  0  0  0  0  0  0  0  0  0  0
   -0.5997   -1.5923    0.0249 C   0  0  0  0  0  0  0  0  0  0  0  0
   -0.1683   -2.8597    0.0406 O   0  0  0  0  0  0  0  0  0  0  0  0
   -0.9275   -3.4634    0.0603 H   0  0  0  0  0  0  0  0  0  0  0  0
    0.4900   -0.5934    0.0043 C   0  0  0  0  0  0  0  0  0  0  0  0
    1.8309   -0.9660   -0.0211 C   0  0  0  0  0  0  0  0  0  0  0  0
    2.8160    0.0033   -0.0316 C   0  0  0  0  0  0  0  0  0  0  0  0
    2.4704    1.3455   -0.0112 C   0  0  0  0  0  0  0  0  0  0  0  0
    1.1383    1.7252    0.0179 C   0  0  0  0  0  0  0  0  0  0  0  0
    0.1430    0.7602    0.0204 C   0  0  0  0  0  0  0  0  0  0  0  0
   -1.2977    1.1743    0.0767 C   0  0  0  0  0  0  0  0  0  0  0  0
   -1.8712    1.4896    1.0822 O   0  0  0  0  0  0  0  0  0  0  0  0
   -1.8352    1.2525   -1.1427 O   0  0  0  0  0  0  0  0  0  0  0  0
   -2.7772    1.4765   -1.0765 H   0  0  0  0  0  0  0  0  0  0  0  0
    0.8684    2.7700    0.0393 H   0  0  0  0  0  0  0  0  0  0  0  0
    3.2414    2.1014   -0.0161 H   0  0  0  0  0  0  0  0  0  0  0  0
    3.8558   -0.2862   -0.0526 H   0  0  0  0  0  0  0  0  0  0  0  0
    2.0852   -2.0141   -0.0316 H   0  0  0  0  0  0  0  0  0  0  0  0
  1  2  2  0
  2  3  1  0
  2  5  1  0
  3  4  1  0
  5  6  2  0
  5 10  1  0
  6  7  1  0
  6 18  1  0
  7  8  2  0
  7 17  1  0
  8  9  1  0
  8 16  1  0
  9 10  2  0
  9 15  1  0
 10 11  1  0
 11 12  2  0
 11 13  1  0
 13 14  1  0
M  END
$$$$

     RDKit          3D

 18 18  0  0  0  0  0  0  0  0999 V2000
    1.8004    1.2428   -0.5031 O   0  0  0  0  0  0  0  0  0  0  0  0
    0.6920    1.5527   -0.1453 C   0  0  0  0  0  0  0  0  0  0  0  0
    0.3685    2.8156    0.1638 O   0  0  0  0  0  0  0  0  0  0  0  0
    1.1444    3.3878    0.0567 H   0  0  0  0  0  0  0  0  0  0  0  0
   -0.4443    0.6113   -0.0255 C   0  0  0  0  0  0  0  0  0  0  0  0
   -1.7590    1.0676   -0.0186 C   0  0  0  0  0  0  0  0  0  0  0  0
   -2.8060    0.1652    0.0092 C   0  0  0  0  0  0  0  0  0  0  0  0
   -2.5496   -1.1967    0.0229 C   0  0  0  0  0  0  0  0  0  0  0  0
   -1.2445   -1.6600    0.0264 C   0  0  0  0  0  0  0  0  0  0  0  0
   -0.1869   -0.7623    0.0107 C   0  0  0  0  0  0  0  0  0  0  0  0
    1.2149   -1.2840    0.0289 C   0  0  0  0  0  0  0  0  0  0  0  0
    1.6859   -1.9900   -0.8195 O   0  0  0  0  0  0  0  0  0  0  0  0
    1.8571   -0.9479    1.1516 O   0  0  0  0  0  0  0  0  0  0  0  0
    2.7760   -1.2583    1.1141 H   0  0  0  0  0  0  0  0  0  0  0  0
   -1.0383   -2.7193    0.0411 H   0  0  0  0  0  0  0  0  0  0  0  0
   -3.3675   -1.9011    0.0284 H   0  0  0  0  0  0  0  0  0  0  0  0
   -3.8243    0.5239    0.0098 H   0  0  0  0  0  0  0  0  0  0  0  0
   -1.9466    2.1293   -0.0486 H   0  0  0  0  0  0  0  0  0  0  0  0
  1  2  2  0
  2  3  1  0
  2  5  1  0
  3  4  1  0
  5  6  2  0
  5 10  1  0
  6  7  1  0
  6 18  1  0
  7  8  2  0
  7 17  1  0
  8  9  1  0
  8 16  1  0
  9 10  2  0
  9 15  1  0
 10 11  1  0
 11 12  2  0
 11 13  1  0
 13 14  1  0
M  END
$$$$

     RDKit          3D

 18 18  0  0  0  0  0  0  0  0999 V2000
   -1.0827   -2.5664   -0.4341 O   0  0  0  0  0  0  0  0  0  0  0  0
   -0.9123   -1.5083    0.1115 C   0  0  0  0  0  0  0  0  0  0  0  0
   -1.8124   -0.9698    0.9444 O   0  0  0  0  0  0  0  0  0  0  0  0
   -2.5992   -1.5356    0.9953 H   0  0  0  0  0  0  0  0  0  0  0  0
    0.3293   -0.6968    0.0105 C   0  0  0  0  0  0  0  0  0  0  0  0
    1.5436   -1.3749   -0.0058 C   0  0  0  0  0  0  0  0  0  0  0  0
    2.7369   -0.6756   -0.0109 C   0  0  0  0  0  0  0  0  0  0  0  0
    2.7278    0.7103    0.0102 C   0  0  0  0  0  0  0  0  0  0  0  0
    1.5256    1.3942    0.0065 C   0  0  0  0  0  0  0  0  0  0  0  0
    0.3202    0.7005   -0.0098 C   0  0  0  0  0  0  0  0  0  0  0  0
   -0.9324    1.4955   -0.1099 C   0  0  0  0  0  0  0  0  0  0  0  0
   -1.1250    2.5405    0.4528 O   0  0  0  0  0  0  0  0  0  0  0  0
   -1.8140    0.9591   -0.9636 O   0  0  0  0  0  0  0  0  0  0  0  0
   -2.6089    1.5136   -1.0138 H   0  0  0  0  0  0  0  0  0  0  0  0
    1.5016    2.4735    0.0061 H   0  0  0  0  0  0  0  0  0  0  0  0
    3.6574    1.2588    0.0209 H   0  0  0  0  0  0  0  0  0  0  0  0
    3.6739   -1.2114   -0.0236 H   0  0  0  0  0  0  0  0  0  0  0  0
    1.5322   -2.4543   -0.0048 H   0  0  0  0  0  0  0  0  0  0  0  0
  1  2  2  0
  2  3  1  0
  2  5  1  0
  3  4  1  0
  5  6  2  0
  5 10  1  0
  6  7  1  0
  6 18  1  0
  7  8  2  0
  7 17  1  0
  8  9  1  0
  8 16  1  0
  9 10  2  0
  9 15  1  0
 10 11  1  0
 11 12  2  0
 11 13  1  0
 13 14  1  0
M  END
$$$$

     RDKit          3D

 18 18  0  0  0  0  0  0  0  0999 V2000
   -0.6368   -2.7685    0.3388 O   0  0  0  0  0  0  0  0  0  0  0  0
   -0.6871   -1.6491   -0.0995 C   0  0  0  0  0  0  0  0  0  0  0  0
   -1.7466   -1.1773   -0.7664 O   0  0  0  0  0  0  0  0  0  0  0  0
   -2.4579   -1.8376   -0.7668 H   0  0  0  0  0  0  0  0  0  0  0  0
    0.4279   -0.6714   -0.0216 C   0  0  0  0  0  0  0  0  0  0  0  0
    1.7292   -1.1614   -0.0488 C   0  0  0  0  0  0  0  0  0  0  0  0
    2.8045   -0.2930   -0.0246 C   0  0  0  0  0  0  0  0  0  0  0  0
    2.5856    1.0749    0.0142 C   0  0  0  0  0  0  0  0  0  0  0  0
    1.2943    1.5729    0.0521 C   0  0  0  0  0  0  0  0  0  0  0  0
    0.2078    0.7066    0.0470 C   0  0  0  0  0  0  0  0  0  0  0  0
   -1.1639    1.2646    0.2159 C   0  0  0  0  0  0  0  0  0  0  0  0
   -1.9422    0.9303    1.0685 O   0  0  0  0  0  0  0  0  0  0  0  0
   -1.4216    2.2413   -0.6607 O   0  0  0  0  0  0  0  0  0  0  0  0
   -2.3167    2.5898   -0.5199 H   0  0  0  0  0  0  0  0  0  0  0  0
    1.1172    2.6365    0.0973 H   0  0  0  0  0  0  0  0  0  0  0  0
    3.4226    1.7568    0.0274 H   0  0  0  0  0  0  0  0  0  0  0  0
    3.8104   -0.6841   -0.0403 H   0  0  0  0  0  0  0  0  0  0  0  0
    1.8731   -2.2302   -0.0904 H   0  0  0  0  0  0  0  0  0  0  0  0
  1  2  2  0
  2  3  1  0
  2  5  1  0
  3  4  1  0
  5  6  2  0
  5 10  1  0
  6  7  1  0
  6 18  1  0
  7  8  2  0
  7 17  1  0
  8  9  1  0
  8 16  1  0
  9 10  2  0
  9 15  1  0
 10 11  1  0
 11 12  2  0
 11 13  1  0
 13 14  1  0
M  END
$$$$

     RDKit          3D

 18 18  0  0  0  0  0  0  0  0999 V2000
   -1.8653   -1.5316    1.0555 O   0  0  0  0  0  0  0  0  0  0  0  0
   -1.2816   -1.1897    0.0647 C   0  0  0  0  0  0  0  0  0  0  0  0
   -1.8119   -1.2508   -1.1604 O   0  0  0  0  0  0  0  0  0  0  0  0
   -2.7343   -1.5496   -1.1127 H   0  0  0  0  0  0  0  0  0  0  0  0
    0.1446   -0.7357    0.0249 C   0  0  0  0  0  0  0  0  0  0  0  0
    1.1403   -1.7030    0.0241 C   0  0  0  0  0  0  0  0  0  0  0  0
    2.4749   -1.3347   -0.0039 C   0  0  0  0  0  0  0  0  0  0  0  0
    2.8282    0.0054   -0.0256 C   0  0  0  0  0  0  0  0  0  0  0  0
    1.8442    0.9740   -0.0178 C   0  0  0  0  0  0  0  0  0  0  0  0
    0.4976    0.6155    0.0064 C   0  0  0  0  0  0  0  0  0  0  0  0
   -0.5034    1.7075    0.0297 C   0  0  0  0  0  0  0  0  0  0  0  0
   -0.2271    2.8802    0.0029 O   0  0  0  0  0  0  0  0  0  0  0  0
   -1.7714    1.2775    0.0895 O   0  0  0  0  0  0  0  0  0  0  0  0
   -2.3764    2.0357    0.1239 H   0  0  0  0  0  0  0  0  0  0  0  0
    2.0898    2.0251   -0.0285 H   0  0  0  0  0  0  0  0  0  0  0  0
    3.8688    0.2916   -0.0455 H   0  0  0  0  0  0  0  0  0  0  0  0
    3.2395   -2.0969   -0.0071 H   0  0  0  0  0  0  0  0  0  0  0  0
    0.8644   -2.7466    0.0459 H   0  0  0  0  0  0  0  0  0  0  0  0
  1  2  2  0
  2  3  1  0
  2  5  1  0
  3  4  1  0
  5  6  2  0
  5 10  1  0
  6  7  1  0
  6 18  1  0
  7  8  2  0
  7 17  1  0
  8  9  1  0
  8 16  1  0
  9 10  2  0
  9 15  1  0
 10 11  1  0
 11 12  2  0
 11 13  1  0
 13 14  1  0
M  END
$$$$
