
     RDKit          3D

 23 22  0  0  0  0  0  0  0  0999 V2000
   -1.6254   -1.2397    0.0007 C   0  0  0  0  0  0  0  0  0  0  0  0
   -1.2273   -2.1483   -0.4409 H   0  0  0  0  0  0  0  0  0  0  0  0
   -1.6047   -1.3386    1.0831 H   0  0  0  0  0  0  0  0  0  0  0  0
   -2.6654   -1.1485   -0.3066 H   0  0  0  0  0  0  0  0  0  0  0  0
   -0.8491   -0.0020   -0.4546 C   0  0  1  0  0  0  0  0  0  0  0  0
   -1.6199    1.2403   -0.0036 C   0  0  0  0  0  0  0  0  0  0  0  0
   -1.1081    2.1569   -0.2816 H   0  0  0  0  0  0  0  0  0  0  0  0
   -1.7660    1.2342    1.0734 H   0  0  0  0  0  0  0  0  0  0  0  0
   -2.6010    1.2516   -0.4747 H   0  0  0  0  0  0  0  0  0  0  0  0
   -0.8384   -0.0069   -1.5517 H   0  0  0  0  0  0  0  0  0  0  0  0
    0.6347    0.0006   -0.0000 C   0  0  1  0  0  0  0  0  0  0  0  0
    1.3981    1.0981   -0.7522 C   0  0  0  0  0  0  0  0  0  0  0  0
    1.3249    0.9483   -1.8273 H   0  0  0  0  0  0  0  0  0  0  0  0
    1.0133    2.0863   -0.5160 H   0  0  0  0  0  0  0  0  0  0  0  0
    2.4504    1.0771   -0.4765 H   0  0  0  0  0  0  0  0  0  0  0  0
    0.7811    0.2434    1.5041 C   0  0  0  0  0  0  0  0  0  0  0  0
    0.4528    1.2434    1.7738 H   0  0  0  0  0  0  0  0  0  0  0  0
    0.2049   -0.4789    2.0767 H   0  0  0  0  0  0  0  0  0  0  0  0
    1.8257    0.1434    1.7920 H   0  0  0  0  0  0  0  0  0  0  0  0
    1.2926   -1.3409   -0.3468 C   0  0  0  0  0  0  0  0  0  0  0  0
    2.3686   -1.2759   -0.1980 H   0  0  0  0  0  0  0  0  0  0  0  0
    1.1100   -1.6024   -1.3870 H   0  0  0  0  0  0  0  0  0  0  0  0
    0.9170   -2.1399    0.2861 H   0  0  0  0  0  0  0  0  0  0  0  0
  1  2  1  0
  1  3  1  0
  1  4  1  0
  1  5  1  0
  5  6  1  0
  5 10  1  6
  5 11  1  0
  6  7  1  0
  6  8  1  0
  6  9  1  0
 11 12  1  6
 11 16  1  0
 11 20  1  0
 12 13  1  0
 12 14  1  0
 12 15  1  0
 16 17  1  0
 16 18  1  0
 16 19  1  0
 20 21  1  0
 20 22  1  0
 20 23  1  0
M  END
$$$$
