
     RDKit          3D

 43 46  0  0  0  0  0  0  0  0999 V2000
    6.6999    2.6735   -0.3622 N   0  0  0  0  0  0  0  0  0  0  0  0
    6.6722    1.3528   -0.0456 C   0  0  0  0  0  0  0  0  0  0  0  0
    7.6879    0.7411    0.2182 O   0  0  0  0  0  0  0  0  0  0  0  0
    5.3265    0.7186   -0.0443 C   0  0  0  0  0  0  0  0  0  0  0  0
    5.2606   -0.6620   -0.2233 C   0  0  0  0  0  0  0  0  0  0  0  0
    4.0477   -1.3123   -0.2339 C   0  0  0  0  0  0  0  0  0  0  0  0
    2.8585   -0.5996   -0.0515 C   0  0  0  0  0  0  0  0  0  0  0  0
    2.9205    0.7785    0.1539 C   0  0  0  0  0  0  0  0  0  0  0  0
    4.1415    1.4227    0.1538 C   0  0  0  0  0  0  0  0  0  0  0  0
    4.1598    2.4860    0.3431 H   0  0  0  0  0  0  0  0  0  0  0  0
    2.0050    1.3232    0.3100 H   0  0  0  0  0  0  0  0  0  0  0  0
    1.6764   -1.3216   -0.0722 N   0  0  0  0  0  0  0  0  0  0  0  0
    0.3821   -0.9063    0.0391 C   0  0  0  0  0  0  0  0  0  0  0  0
    0.1293    0.3783    0.1717 N   0  0  0  0  0  0  0  0  0  0  0  0
   -1.0979    0.8408    0.1833 N   0  0  0  0  0  0  0  0  0  0  0  0
   -2.1377    0.0520    0.0919 C   0  0  0  0  0  0  0  0  0  0  0  0
   -1.9958   -1.3753    0.0843 C   0  0  0  0  0  0  0  0  0  0  0  0
   -3.0771   -2.2667    0.1975 C   0  0  0  0  0  0  0  0  0  0  0  0
   -2.8624   -3.6196    0.1972 C   0  0  0  0  0  0  0  0  0  0  0  0
   -1.5633   -4.1277    0.1024 C   0  0  0  0  0  0  0  0  0  0  0  0
   -0.4879   -3.2797    0.0373 C   0  0  0  0  0  0  0  0  0  0  0  0
   -0.6766   -1.8872    0.0328 C   0  0  0  0  0  0  0  0  0  0  0  0
    0.5056   -3.7043    0.0050 H   0  0  0  0  0  0  0  0  0  0  0  0
   -1.4076   -5.1964    0.1009 H   0  0  0  0  0  0  0  0  0  0  0  0
   -3.6954   -4.3017    0.2802 H   0  0  0  0  0  0  0  0  0  0  0  0
   -4.0750   -1.8703    0.3035 H   0  0  0  0  0  0  0  0  0  0  0  0
   -3.4432    0.7174    0.0186 C   0  0  0  0  0  0  0  0  0  0  0  0
   -4.4108    0.3280   -0.9066 C   0  0  0  0  0  0  0  0  0  0  0  0
   -5.6217    0.9841   -0.9779 C   0  0  0  0  0  0  0  0  0  0  0  0
   -5.8901    2.0488   -0.1221 C   0  0  0  0  0  0  0  0  0  0  0  0
   -4.9208    2.4574    0.7878 C   0  0  0  0  0  0  0  0  0  0  0  0
   -3.7078    1.8023    0.8497 C   0  0  0  0  0  0  0  0  0  0  0  0
   -2.9493    2.1211    1.5472 H   0  0  0  0  0  0  0  0  0  0  0  0
   -5.1207    3.2939    1.4449 H   0  0  0  0  0  0  0  0  0  0  0  0
   -7.1001    2.6609   -0.2158 O   0  0  0  0  0  0  0  0  0  0  0  0
   -7.1481    3.3898    0.4147 H   0  0  0  0  0  0  0  0  0  0  0  0
   -6.3735    0.6928   -1.6942 H   0  0  0  0  0  0  0  0  0  0  0  0
   -4.2020   -0.4749   -1.5987 H   0  0  0  0  0  0  0  0  0  0  0  0
    1.8059   -2.3141   -0.2083 H   0  0  0  0  0  0  0  0  0  0  0  0
    4.0133   -2.3835   -0.3816 H   0  0  0  0  0  0  0  0  0  0  0  0
    6.1824   -1.2078   -0.3552 H   0  0  0  0  0  0  0  0  0  0  0  0
    5.8932    3.1585   -0.7093 H   0  0  0  0  0  0  0  0  0  0  0  0
    7.5963    3.1273   -0.4162 H   0  0  0  0  0  0  0  0  0  0  0  0
  1  2  1  0
  1 42  1  0
  1 43  1  0
  2  3  2  0
  2  4  1  0
  4  5  2  0
  4  9  1  0
  5  6  1  0
  5 41  1  0
  6  7  2  0
  6 40  1  0
  7  8  1  0
  7 12  1  0
  8  9  2  0
  8 11  1  0
  9 10  1  0
 12 13  1  0
 12 39  1  0
 13 14  2  0
 13 22  1  0
 14 15  1  0
 15 16  2  0
 16 17  1  0
 16 27  1  0
 17 18  1  0
 17 22  2  0
 18 19  2  0
 18 26  1  0
 19 20  1  0
 19 25  1  0
 20 21  2  0
 20 24  1  0
 21 22  1  0
 21 23  1  0
 27 28  2  0
 27 32  1  0
 28 29  1  0
 28 38  1  0
 29 30  2  0
 29 37  1  0
 30 31  1  0
 30 35  1  0
 31 32  2  0
 31 34  1  0
 32 33  1  0
 35 36  1  0
M  END
$$$$

     RDKit          3D

 43 46  0  0  0  0  0  0  0  0999 V2000
    6.7034    2.6775    0.3301 N   0  0  0  0  0  0  0  0  0  0  0  0
    6.6747    1.3498    0.0451 C   0  0  0  0  0  0  0  0  0  0  0  0
    7.6916    0.7290   -0.1924 O   0  0  0  0  0  0  0  0  0  0  0  0
    5.3277    0.7184    0.0445 C   0  0  0  0  0  0  0  0  0  0  0  0
    4.1444    1.4202   -0.1714 C   0  0  0  0  0  0  0  0  0  0  0  0
    2.9227    0.7771   -0.1688 C   0  0  0  0  0  0  0  0  0  0  0  0
    2.8585   -0.5977    0.0560 C   0  0  0  0  0  0  0  0  0  0  0  0
    4.0459   -1.3087    0.2558 C   0  0  0  0  0  0  0  0  0  0  0  0
    5.2592   -0.6594    0.2438 C   0  0  0  0  0  0  0  0  0  0  0  0
    6.1799   -1.2037    0.3894 H   0  0  0  0  0  0  0  0  0  0  0  0
    4.0096   -2.3776    0.4184 H   0  0  0  0  0  0  0  0  0  0  0  0
    1.6760   -1.3191    0.0781 N   0  0  0  0  0  0  0  0  0  0  0  0
    0.3821   -0.9037   -0.0366 C   0  0  0  0  0  0  0  0  0  0  0  0
    0.1291    0.3812   -0.1666 N   0  0  0  0  0  0  0  0  0  0  0  0
   -1.0981    0.8433   -0.1792 N   0  0  0  0  0  0  0  0  0  0  0  0
   -2.1378    0.0540   -0.0920 C   0  0  0  0  0  0  0  0  0  0  0  0
   -1.9955   -1.3733   -0.0880 C   0  0  0  0  0  0  0  0  0  0  0  0
   -3.0761   -2.2650   -0.2051 C   0  0  0  0  0  0  0  0  0  0  0  0
   -2.8610   -3.6178   -0.2076 C   0  0  0  0  0  0  0  0  0  0  0  0
   -1.5618   -4.1257   -0.1127 C   0  0  0  0  0  0  0  0  0  0  0  0
   -0.4869   -3.2773   -0.0439 C   0  0  0  0  0  0  0  0  0  0  0  0
   -0.6762   -1.8849   -0.0352 C   0  0  0  0  0  0  0  0  0  0  0  0
    0.5069   -3.7014   -0.0130 H   0  0  0  0  0  0  0  0  0  0  0  0
   -1.4056   -5.1943   -0.1145 H   0  0  0  0  0  0  0  0  0  0  0  0
   -3.6935   -4.3002   -0.2934 H   0  0  0  0  0  0  0  0  0  0  0  0
   -4.0737   -1.8684   -0.3125 H   0  0  0  0  0  0  0  0  0  0  0  0
   -3.4441    0.7183   -0.0184 C   0  0  0  0  0  0  0  0  0  0  0  0
   -4.4066    0.3288    0.9084 C   0  0  0  0  0  0  0  0  0  0  0  0
   -5.6200    0.9862    0.9796 C   0  0  0  0  0  0  0  0  0  0  0  0
   -5.8925    2.0470    0.1236 C   0  0  0  0  0  0  0  0  0  0  0  0
   -4.9254    2.4558   -0.7918 C   0  0  0  0  0  0  0  0  0  0  0  0
   -3.7141    1.8025   -0.8525 C   0  0  0  0  0  0  0  0  0  0  0  0
   -2.9566    2.1199   -1.5514 H   0  0  0  0  0  0  0  0  0  0  0  0
   -5.1462    3.2889   -1.4397 H   0  0  0  0  0  0  0  0  0  0  0  0
   -7.0767    2.7136    0.1520 O   0  0  0  0  0  0  0  0  0  0  0  0
   -7.6478    2.3420    0.8352 H   0  0  0  0  0  0  0  0  0  0  0  0
   -6.3595    0.6797    1.7085 H   0  0  0  0  0  0  0  0  0  0  0  0
   -4.1971   -0.4731    1.6019 H   0  0  0  0  0  0  0  0  0  0  0  0
    1.8046   -2.3105    0.2222 H   0  0  0  0  0  0  0  0  0  0  0  0
    2.0087    1.3206   -0.3374 H   0  0  0  0  0  0  0  0  0  0  0  0
    4.1640    2.4806   -0.3764 H   0  0  0  0  0  0  0  0  0  0  0  0
    5.8940    3.1754    0.6514 H   0  0  0  0  0  0  0  0  0  0  0  0
    7.6008    3.1300    0.3798 H   0  0  0  0  0  0  0  0  0  0  0  0
  1  2  1  0
  1 42  1  0
  1 43  1  0
  2  3  2  0
  2  4  1  0
  4  5  2  0
  4  9  1  0
  5  6  1  0
  5 41  1  0
  6  7  2  0
  6 40  1  0
  7  8  1  0
  7 12  1  0
  8  9  2  0
  8 11  1  0
  9 10  1  0
 12 13  1  0
 12 39  1  0
 13 14  2  0
 13 22  1  0
 14 15  1  0
 15 16  2  0
 16 17  1  0
 16 27  1  0
 17 18  1  0
 17 22  2  0
 18 19  2  0
 18 26  1  0
 19 20  1  0
 19 25  1  0
 20 21  2  0
 20 24  1  0
 21 22  1  0
 21 23  1  0
 27 28  2  0
 27 32  1  0
 28 29  1  0
 28 38  1  0
 29 30  2  0
 29 37  1  0
 30 31  1  0
 30 35  1  0
 31 32  2  0
 31 34  1  0
 32 33  1  0
 35 36  1  0
M  END
$$$$

     RDKit          3D

 43 46  0  0  0  0  0  0  0  0999 V2000
    7.6288    0.8999   -0.7478 N   0  0  0  0  0  0  0  0  0  0  0  0
    6.6132    1.4597   -0.0360 C   0  0  0  0  0  0  0  0  0  0  0  0
    6.7624    2.4992    0.5725 O   0  0  0  0  0  0  0  0  0  0  0  0
    5.3308    0.7064   -0.0514 C   0  0  0  0  0  0  0  0  0  0  0  0
    4.1474    1.4146    0.1466 C   0  0  0  0  0  0  0  0  0  0  0  0
    2.9214    0.7837    0.1459 C   0  0  0  0  0  0  0  0  0  0  0  0
    2.8558   -0.5976   -0.0381 C   0  0  0  0  0  0  0  0  0  0  0  0
    4.0430   -1.3158   -0.2117 C   0  0  0  0  0  0  0  0  0  0  0  0
    5.2629   -0.6740   -0.2231 C   0  0  0  0  0  0  0  0  0  0  0  0
    6.1631   -1.2613   -0.3334 H   0  0  0  0  0  0  0  0  0  0  0  0
    4.0041   -2.3904   -0.3352 H   0  0  0  0  0  0  0  0  0  0  0  0
    1.6742   -1.3207   -0.0460 N   0  0  0  0  0  0  0  0  0  0  0  0
    0.3794   -0.9040    0.0612 C   0  0  0  0  0  0  0  0  0  0  0  0
    0.1262    0.3822    0.1712 N   0  0  0  0  0  0  0  0  0  0  0  0
   -1.1007    0.8440    0.1706 N   0  0  0  0  0  0  0  0  0  0  0  0
   -2.1405    0.0534    0.0926 C   0  0  0  0  0  0  0  0  0  0  0  0
   -1.9980   -1.3736    0.1174 C   0  0  0  0  0  0  0  0  0  0  0  0
   -3.0783   -2.2631    0.2530 C   0  0  0  0  0  0  0  0  0  0  0  0
   -2.8628   -3.6155    0.2820 C   0  0  0  0  0  0  0  0  0  0  0  0
   -1.5635   -4.1249    0.1962 C   0  0  0  0  0  0  0  0  0  0  0  0
   -0.4888   -3.2777    0.1110 C   0  0  0  0  0  0  0  0  0  0  0  0
   -0.6783   -1.8856    0.0756 C   0  0  0  0  0  0  0  0  0  0  0  0
    0.5050   -3.7022    0.0878 H   0  0  0  0  0  0  0  0  0  0  0  0
   -1.4071   -5.1933    0.2184 H   0  0  0  0  0  0  0  0  0  0  0  0
   -3.6951   -4.2962    0.3818 H   0  0  0  0  0  0  0  0  0  0  0  0
   -4.0761   -1.8651    0.3528 H   0  0  0  0  0  0  0  0  0  0  0  0
   -3.4447    0.7178   -0.0022 C   0  0  0  0  0  0  0  0  0  0  0  0
   -3.7066    1.8305    0.7927 C   0  0  0  0  0  0  0  0  0  0  0  0
   -4.9172    2.4874    0.7076 C   0  0  0  0  0  0  0  0  0  0  0  0
   -5.8868    2.0525   -0.1899 C   0  0  0  0  0  0  0  0  0  0  0  0
   -5.6213    0.9590   -1.0095 C   0  0  0  0  0  0  0  0  0  0  0  0
   -4.4126    0.3016   -0.9153 C   0  0  0  0  0  0  0  0  0  0  0  0
   -4.2057   -0.5237   -1.5812 H   0  0  0  0  0  0  0  0  0  0  0  0
   -6.3731    0.6470   -1.7170 H   0  0  0  0  0  0  0  0  0  0  0  0
   -7.0943    2.6657   -0.3055 O   0  0  0  0  0  0  0  0  0  0  0  0
   -7.1390    3.4170    0.2984 H   0  0  0  0  0  0  0  0  0  0  0  0
   -5.1146    3.3461    1.3361 H   0  0  0  0  0  0  0  0  0  0  0  0
   -2.9474    2.1697    1.4796 H   0  0  0  0  0  0  0  0  0  0  0  0
    1.8022   -2.3153   -0.1670 H   0  0  0  0  0  0  0  0  0  0  0  0
    2.0083    1.3364    0.2865 H   0  0  0  0  0  0  0  0  0  0  0  0
    4.2102    2.4811    0.3000 H   0  0  0  0  0  0  0  0  0  0  0  0
    7.4770    0.1392   -1.3842 H   0  0  0  0  0  0  0  0  0  0  0  0
    8.4937    1.4110   -0.8102 H   0  0  0  0  0  0  0  0  0  0  0  0
  1  2  1  0
  1 42  1  0
  1 43  1  0
  2  3  2  0
  2  4  1  0
  4  5  2  0
  4  9  1  0
  5  6  1  0
  5 41  1  0
  6  7  2  0
  6 40  1  0
  7  8  1  0
  7 12  1  0
  8  9  2  0
  8 11  1  0
  9 10  1  0
 12 13  1  0
 12 39  1  0
 13 14  2  0
 13 22  1  0
 14 15  1  0
 15 16  2  0
 16 17  1  0
 16 27  1  0
 17 18  1  0
 17 22  2  0
 18 19  2  0
 18 26  1  0
 19 20  1  0
 19 25  1  0
 20 21  2  0
 20 24  1  0
 21 22  1  0
 21 23  1  0
 27 28  2  0
 27 32  1  0
 28 29  1  0
 28 38  1  0
 29 30  2  0
 29 37  1  0
 30 31  1  0
 30 35  1  0
 31 32  2  0
 31 34  1  0
 32 33  1  0
 35 36  1  0
M  END
$$$$

     RDKit          3D

 43 46  0  0  0  0  0  0  0  0999 V2000
   -7.6317   -0.8933    0.7480 N   0  0  0  0  0  0  0  0  0  0  0  0
   -6.6163   -1.4574    0.0392 C   0  0  0  0  0  0  0  0  0  0  0  0
   -6.7660   -2.4996   -0.5643 O   0  0  0  0  0  0  0  0  0  0  0  0
   -5.3332   -0.7049    0.0517 C   0  0  0  0  0  0  0  0  0  0  0  0
   -5.2644    0.6763    0.2164 C   0  0  0  0  0  0  0  0  0  0  0  0
   -4.0440    1.3170    0.2026 C   0  0  0  0  0  0  0  0  0  0  0  0
   -2.8573    0.5970    0.0336 C   0  0  0  0  0  0  0  0  0  0  0  0
   -2.9237   -0.7851   -0.1438 C   0  0  0  0  0  0  0  0  0  0  0  0
   -4.1502   -1.4151   -0.1421 C   0  0  0  0  0  0  0  0  0  0  0  0
   -4.2138   -2.4822   -0.2906 H   0  0  0  0  0  0  0  0  0  0  0  0
   -2.0110   -1.3393   -0.2815 H   0  0  0  0  0  0  0  0  0  0  0  0
   -1.6751    1.3194    0.0394 N   0  0  0  0  0  0  0  0  0  0  0  0
   -0.3805    0.9015   -0.0636 C   0  0  0  0  0  0  0  0  0  0  0  0
   -0.1277   -0.3851   -0.1696 N   0  0  0  0  0  0  0  0  0  0  0  0
    1.0987   -0.8479   -0.1679 N   0  0  0  0  0  0  0  0  0  0  0  0
    2.1386   -0.0580   -0.0900 C   0  0  0  0  0  0  0  0  0  0  0  0
    1.9972    1.3691   -0.1140 C   0  0  0  0  0  0  0  0  0  0  0  0
    3.0790    2.2576   -0.2442 C   0  0  0  0  0  0  0  0  0  0  0  0
    2.8652    3.6102   -0.2746 C   0  0  0  0  0  0  0  0  0  0  0  0
    1.5660    4.1208   -0.1951 C   0  0  0  0  0  0  0  0  0  0  0  0
    0.4901    3.2747   -0.1138 C   0  0  0  0  0  0  0  0  0  0  0  0
    0.6779    1.8825   -0.0769 C   0  0  0  0  0  0  0  0  0  0  0  0
   -0.5034    3.7004   -0.0948 H   0  0  0  0  0  0  0  0  0  0  0  0
    1.4107    5.1894   -0.2190 H   0  0  0  0  0  0  0  0  0  0  0  0
    3.6986    4.2902   -0.3709 H   0  0  0  0  0  0  0  0  0  0  0  0
    4.0767    1.8580   -0.3394 H   0  0  0  0  0  0  0  0  0  0  0  0
    3.4441   -0.7211    0.0033 C   0  0  0  0  0  0  0  0  0  0  0  0
    4.4009   -0.3149    0.9288 C   0  0  0  0  0  0  0  0  0  0  0  0
    5.6135   -0.9714    1.0197 C   0  0  0  0  0  0  0  0  0  0  0  0
    5.8909   -2.0475    0.1846 C   0  0  0  0  0  0  0  0  0  0  0  0
    4.9295   -2.4724   -0.7295 C   0  0  0  0  0  0  0  0  0  0  0  0
    3.7187   -1.8204   -0.8094 C   0  0  0  0  0  0  0  0  0  0  0  0
    2.9650   -2.1506   -1.5065 H   0  0  0  0  0  0  0  0  0  0  0  0
    5.1542   -3.3171   -1.3608 H   0  0  0  0  0  0  0  0  0  0  0  0
    7.0748   -2.7134    0.2323 O   0  0  0  0  0  0  0  0  0  0  0  0
    7.6400   -2.3324    0.9153 H   0  0  0  0  0  0  0  0  0  0  0  0
    6.3482   -0.6524    1.7481 H   0  0  0  0  0  0  0  0  0  0  0  0
    4.1873    0.4995    1.6063 H   0  0  0  0  0  0  0  0  0  0  0  0
   -1.8029    2.3147    0.1549 H   0  0  0  0  0  0  0  0  0  0  0  0
   -4.0043    2.3922    0.3208 H   0  0  0  0  0  0  0  0  0  0  0  0
   -6.1642    1.2649    0.3230 H   0  0  0  0  0  0  0  0  0  0  0  0
   -7.4796   -0.1286    1.3796 H   0  0  0  0  0  0  0  0  0  0  0  0
   -8.4975   -1.4025    0.8122 H   0  0  0  0  0  0  0  0  0  0  0  0
  1  2  1  0
  1 42  1  0
  1 43  1  0
  2  3  2  0
  2  4  1  0
  4  5  2  0
  4  9  1  0
  5  6  1  0
  5 41  1  0
  6  7  2  0
  6 40  1  0
  7  8  1  0
  7 12  1  0
  8  9  2  0
  8 11  1  0
  9 10  1  0
 12 13  1  0
 12 39  1  0
 13 14  2  0
 13 22  1  0
 14 15  1  0
 15 16  2  0
 16 17  1  0
 16 27  1  0
 17 18  1  0
 17 22  2  0
 18 19  2  0
 18 26  1  0
 19 20  1  0
 19 25  1  0
 20 21  2  0
 20 24  1  0
 21 22  1  0
 21 23  1  0
 27 28  2  0
 27 32  1  0
 28 29  1  0
 28 38  1  0
 29 30  2  0
 29 37  1  0
 30 31  1  0
 30 35  1  0
 31 32  2  0
 31 34  1  0
 32 33  1  0
 35 36  1  0
M  END
$$$$

     RDKit          3D

 43 46  0  0  0  0  0  0  0  0999 V2000
   -7.4799   -0.2461    1.0809 N   0  0  0  0  0  0  0  0  0  0  0  0
   -6.3980    0.5751    1.0317 C   0  0  0  0  0  0  0  0  0  0  0  0
   -6.4700    1.7428    1.3559 O   0  0  0  0  0  0  0  0  0  0  0  0
   -5.1373   -0.0483    0.5471 C   0  0  0  0  0  0  0  0  0  0  0  0
   -3.9317    0.5217    0.9513 C   0  0  0  0  0  0  0  0  0  0  0  0
   -2.7238    0.0075    0.5342 C   0  0  0  0  0  0  0  0  0  0  0  0
   -2.6907   -1.0871   -0.3326 C   0  0  0  0  0  0  0  0  0  0  0  0
   -3.8985   -1.6633   -0.7349 C   0  0  0  0  0  0  0  0  0  0  0  0
   -5.1035   -1.1517   -0.3026 C   0  0  0  0  0  0  0  0  0  0  0  0
   -6.0190   -1.5995   -0.6606 H   0  0  0  0  0  0  0  0  0  0  0  0
   -3.8787   -2.5148   -1.3999 H   0  0  0  0  0  0  0  0  0  0  0  0
   -1.5109   -1.6441   -0.7991 N   0  0  0  0  0  0  0  0  0  0  0  0
   -0.2291   -1.1596   -0.6817 C   0  0  0  0  0  0  0  0  0  0  0  0
    0.6855   -2.0852   -0.4766 N   0  0  0  0  0  0  0  0  0  0  0  0
    1.9368   -1.7659   -0.2520 N   0  0  0  0  0  0  0  0  0  0  0  0
    2.3424   -0.5197   -0.2516 C   0  0  0  0  0  0  0  0  0  0  0  0
    1.4843    0.5406   -0.6943 C   0  0  0  0  0  0  0  0  0  0  0  0
    1.9362    1.8311   -1.0228 C   0  0  0  0  0  0  0  0  0  0  0  0
    1.0654    2.7595   -1.5293 C   0  0  0  0  0  0  0  0  0  0  0  0
   -0.2736    2.4249   -1.7634 C   0  0  0  0  0  0  0  0  0  0  0  0
   -0.7368    1.1674   -1.4800 C   0  0  0  0  0  0  0  0  0  0  0  0
    0.1257    0.2080   -0.9206 C   0  0  0  0  0  0  0  0  0  0  0  0
   -1.7571    0.9004   -1.7066 H   0  0  0  0  0  0  0  0  0  0  0  0
   -0.9394    3.1600   -2.1903 H   0  0  0  0  0  0  0  0  0  0  0  0
    1.4151    3.7517   -1.7738 H   0  0  0  0  0  0  0  0  0  0  0  0
    2.9806    2.0707   -0.8960 H   0  0  0  0  0  0  0  0  0  0  0  0
    3.7263   -0.2920    0.1727 C   0  0  0  0  0  0  0  0  0  0  0  0
    4.7214   -1.1850   -0.2166 C   0  0  0  0  0  0  0  0  0  0  0  0
    6.0285   -1.0007    0.1851 C   0  0  0  0  0  0  0  0  0  0  0  0
    6.3641    0.0749    1.0010 C   0  0  0  0  0  0  0  0  0  0  0  0
    5.3699    0.9552    1.4191 C   0  0  0  0  0  0  0  0  0  0  0  0
    4.0664    0.7715    1.0082 C   0  0  0  0  0  0  0  0  0  0  0  0
    3.2988    1.4421    1.3661 H   0  0  0  0  0  0  0  0  0  0  0  0
    5.6406    1.7714    2.0700 H   0  0  0  0  0  0  0  0  0  0  0  0
    7.6382    0.2980    1.4177 O   0  0  0  0  0  0  0  0  0  0  0  0
    8.2206   -0.3911    1.0755 H   0  0  0  0  0  0  0  0  0  0  0  0
    6.7970   -1.6943   -0.1308 H   0  0  0  0  0  0  0  0  0  0  0  0
    4.4529   -2.0215   -0.8420 H   0  0  0  0  0  0  0  0  0  0  0  0
   -1.5282   -2.6461   -0.9441 H   0  0  0  0  0  0  0  0  0  0  0  0
   -1.8023    0.4458    0.8845 H   0  0  0  0  0  0  0  0  0  0  0  0
   -3.9648    1.3748    1.6117 H   0  0  0  0  0  0  0  0  0  0  0  0
   -7.4028   -1.2400    0.9675 H   0  0  0  0  0  0  0  0  0  0  0  0
   -8.3363    0.1288    1.4536 H   0  0  0  0  0  0  0  0  0  0  0  0
  1  2  1  0
  1 42  1  0
  1 43  1  0
  2  3  2  0
  2  4  1  0
  4  5  2  0
  4  9  1  0
  5  6  1  0
  5 41  1  0
  6  7  2  0
  6 40  1  0
  7  8  1  0
  7 12  1  0
  8  9  2  0
  8 11  1  0
  9 10  1  0
 12 13  1  0
 12 39  1  0
 13 14  2  0
 13 22  1  0
 14 15  1  0
 15 16  2  0
 16 17  1  0
 16 27  1  0
 17 18  1  0
 17 22  2  0
 18 19  2  0
 18 26  1  0
 19 20  1  0
 19 25  1  0
 20 21  2  0
 20 24  1  0
 21 22  1  0
 21 23  1  0
 27 28  2  0
 27 32  1  0
 28 29  1  0
 28 38  1  0
 29 30  2  0
 29 37  1  0
 30 31  1  0
 30 35  1  0
 31 32  2  0
 31 34  1  0
 32 33  1  0
 35 36  1  0
M  END
$$$$

     RDKit          3D

 43 46  0  0  0  0  0  0  0  0999 V2000
   -6.4653   -1.2187    2.1481 N   0  0  0  0  0  0  0  0  0  0  0  0
   -6.4449   -0.5197    0.9827 C   0  0  0  0  0  0  0  0  0  0  0  0
   -7.4486   -0.3591    0.3191 O   0  0  0  0  0  0  0  0  0  0  0  0
   -5.1182    0.0190    0.5778 C   0  0  0  0  0  0  0  0  0  0  0  0
   -5.0956    1.1396   -0.2513 C   0  0  0  0  0  0  0  0  0  0  0  0
   -3.9028    1.6837   -0.6706 C   0  0  0  0  0  0  0  0  0  0  0  0
   -2.6889    1.1035   -0.2930 C   0  0  0  0  0  0  0  0  0  0  0  0
   -2.7091   -0.0175    0.5391 C   0  0  0  0  0  0  0  0  0  0  0  0
   -3.9085   -0.5504    0.9655 C   0  0  0  0  0  0  0  0  0  0  0  0
   -3.8900   -1.4324    1.5891 H   0  0  0  0  0  0  0  0  0  0  0  0
   -1.7811   -0.4649    0.8606 H   0  0  0  0  0  0  0  0  0  0  0  0
   -1.5126    1.6814   -0.7442 N   0  0  0  0  0  0  0  0  0  0  0  0
   -0.2306    1.1946   -0.6487 C   0  0  0  0  0  0  0  0  0  0  0  0
    0.6857    2.1081   -0.4003 N   0  0  0  0  0  0  0  0  0  0  0  0
    1.9352    1.7759   -0.1870 N   0  0  0  0  0  0  0  0  0  0  0  0
    2.3396    0.5309   -0.2449 C   0  0  0  0  0  0  0  0  0  0  0  0
    1.4813   -0.5055   -0.7411 C   0  0  0  0  0  0  0  0  0  0  0  0
    1.9321   -1.7784   -1.1336 C   0  0  0  0  0  0  0  0  0  0  0  0
    1.0606   -2.6802   -1.6847 C   0  0  0  0  0  0  0  0  0  0  0  0
   -0.2787   -2.3340   -1.9000 C   0  0  0  0  0  0  0  0  0  0  0  0
   -0.7410   -1.0916   -1.5546 C   0  0  0  0  0  0  0  0  0  0  0  0
    0.1232   -0.1611   -0.9505 C   0  0  0  0  0  0  0  0  0  0  0  0
   -1.7609   -0.8120   -1.7675 H   0  0  0  0  0  0  0  0  0  0  0  0
   -0.9446   -3.0464   -2.3639 H   0  0  0  0  0  0  0  0  0  0  0  0
    1.4098   -3.6586   -1.9805 H   0  0  0  0  0  0  0  0  0  0  0  0
    2.9771   -2.0234   -1.0211 H   0  0  0  0  0  0  0  0  0  0  0  0
    3.7202    0.2796    0.1765 C   0  0  0  0  0  0  0  0  0  0  0  0
    4.0481   -0.8211    0.9636 C   0  0  0  0  0  0  0  0  0  0  0  0
    5.3505   -1.0264    1.3765 C   0  0  0  0  0  0  0  0  0  0  0  0
    6.3503   -0.1334    1.0080 C   0  0  0  0  0  0  0  0  0  0  0  0
    6.0257    0.9807    0.2370 C   0  0  0  0  0  0  0  0  0  0  0  0
    4.7242    1.1859   -0.1641 C   0  0  0  0  0  0  0  0  0  0  0  0
    4.4618    2.0509   -0.7520 H   0  0  0  0  0  0  0  0  0  0  0  0
    6.8101    1.6707   -0.0298 H   0  0  0  0  0  0  0  0  0  0  0  0
    7.6454   -0.3033    1.3825 O   0  0  0  0  0  0  0  0  0  0  0  0
    7.7317   -1.0997    1.9204 H   0  0  0  0  0  0  0  0  0  0  0  0
    5.5940   -1.8813    1.9944 H   0  0  0  0  0  0  0  0  0  0  0  0
    3.2766   -1.5066    1.2837 H   0  0  0  0  0  0  0  0  0  0  0  0
   -1.5349    2.6880   -0.8520 H   0  0  0  0  0  0  0  0  0  0  0  0
   -3.8948    2.5595   -1.3028 H   0  0  0  0  0  0  0  0  0  0  0  0
   -6.0367    1.5709   -0.5562 H   0  0  0  0  0  0  0  0  0  0  0  0
   -5.6868   -1.2263    2.7810 H   0  0  0  0  0  0  0  0  0  0  0  0
   -7.3558   -1.5506    2.4797 H   0  0  0  0  0  0  0  0  0  0  0  0
  1  2  1  0
  1 42  1  0
  1 43  1  0
  2  3  2  0
  2  4  1  0
  4  5  2  0
  4  9  1  0
  5  6  1  0
  5 41  1  0
  6  7  2  0
  6 40  1  0
  7  8  1  0
  7 12  1  0
  8  9  2  0
  8 11  1  0
  9 10  1  0
 12 13  1  0
 12 39  1  0
 13 14  2  0
 13 22  1  0
 14 15  1  0
 15 16  2  0
 16 17  1  0
 16 27  1  0
 17 18  1  0
 17 22  2  0
 18 19  2  0
 18 26  1  0
 19 20  1  0
 19 25  1  0
 20 21  2  0
 20 24  1  0
 21 22  1  0
 21 23  1  0
 27 28  2  0
 27 32  1  0
 28 29  1  0
 28 38  1  0
 29 30  2  0
 29 37  1  0
 30 31  1  0
 30 35  1  0
 31 32  2  0
 31 34  1  0
 32 33  1  0
 35 36  1  0
M  END
$$$$

     RDKit          3D

 43 46  0  0  0  0  0  0  0  0999 V2000
    7.5868    0.4362    0.7211 N   0  0  0  0  0  0  0  0  0  0  0  0
    6.5128   -0.3768    0.9022 C   0  0  0  0  0  0  0  0  0  0  0  0
    6.6169   -1.4580    1.4447 O   0  0  0  0  0  0  0  0  0  0  0  0
    5.2179    0.1421    0.3856 C   0  0  0  0  0  0  0  0  0  0  0  0
    4.0459   -0.3310    0.9720 C   0  0  0  0  0  0  0  0  0  0  0  0
    2.8092    0.0951    0.5395 C   0  0  0  0  0  0  0  0  0  0  0  0
    2.7110    0.9944   -0.5244 C   0  0  0  0  0  0  0  0  0  0  0  0
    3.8855    1.4739   -1.1102 C   0  0  0  0  0  0  0  0  0  0  0  0
    5.1201    1.0542   -0.6628 C   0  0  0  0  0  0  0  0  0  0  0  0
    6.0071    1.4183   -1.1606 H   0  0  0  0  0  0  0  0  0  0  0  0
    3.8154    2.1761   -1.9285 H   0  0  0  0  0  0  0  0  0  0  0  0
    1.4985    1.4527   -1.0172 N   0  0  0  0  0  0  0  0  0  0  0  0
    0.2293    1.0062   -0.7168 C   0  0  0  0  0  0  0  0  0  0  0  0
   -0.6545    1.9653   -0.5499 N   0  0  0  0  0  0  0  0  0  0  0  0
   -1.9167    1.7023   -0.3027 N   0  0  0  0  0  0  0  0  0  0  0  0
   -2.3478    0.4720   -0.1752 C   0  0  0  0  0  0  0  0  0  0  0  0
   -1.4796   -0.6552   -0.3452 C   0  0  0  0  0  0  0  0  0  0  0  0
   -1.8825   -1.9946   -0.1912 C   0  0  0  0  0  0  0  0  0  0  0  0
   -1.0118   -3.0132   -0.4738 C   0  0  0  0  0  0  0  0  0  0  0  0
    0.2801   -2.7360   -0.9383 C   0  0  0  0  0  0  0  0  0  0  0  0
    0.7204   -1.4429   -1.0372 C   0  0  0  0  0  0  0  0  0  0  0  0
   -0.1342   -0.3797   -0.6948 C   0  0  0  0  0  0  0  0  0  0  0  0
    1.7200   -1.2338   -1.3842 H   0  0  0  0  0  0  0  0  0  0  0  0
    0.9369   -3.5506   -1.2044 H   0  0  0  0  0  0  0  0  0  0  0  0
   -1.3230   -4.0403   -0.3523 H   0  0  0  0  0  0  0  0  0  0  0  0
   -2.8807   -2.2067    0.1590 H   0  0  0  0  0  0  0  0  0  0  0  0
   -3.7814    0.3280    0.1112 C   0  0  0  0  0  0  0  0  0  0  0  0
   -4.3593    1.1017    1.1132 C   0  0  0  0  0  0  0  0  0  0  0  0
   -5.7074    1.0007    1.3920 C   0  0  0  0  0  0  0  0  0  0  0  0
   -6.5094    0.1337    0.6577 C   0  0  0  0  0  0  0  0  0  0  0  0
   -5.9446   -0.6207   -0.3668 C   0  0  0  0  0  0  0  0  0  0  0  0
   -4.5953   -0.5225   -0.6351 C   0  0  0  0  0  0  0  0  0  0  0  0
   -4.1756   -1.0869   -1.4550 H   0  0  0  0  0  0  0  0  0  0  0  0
   -6.5826   -1.2713   -0.9437 H   0  0  0  0  0  0  0  0  0  0  0  0
   -7.8404   -0.0006    0.8976 O   0  0  0  0  0  0  0  0  0  0  0  0
   -8.1057    0.5899    1.6133 H   0  0  0  0  0  0  0  0  0  0  0  0
   -6.1455    1.5998    2.1797 H   0  0  0  0  0  0  0  0  0  0  0  0
   -3.7366    1.7812    1.6738 H   0  0  0  0  0  0  0  0  0  0  0  0
    1.4960    2.4187   -1.3210 H   0  0  0  0  0  0  0  0  0  0  0  0
    1.9157   -0.2601    1.0293 H   0  0  0  0  0  0  0  0  0  0  0  0
    4.1283   -1.0350    1.7860 H   0  0  0  0  0  0  0  0  0  0  0  0
    7.4922    1.3879    0.4181 H   0  0  0  0  0  0  0  0  0  0  0  0
    8.4691    0.1403    1.1042 H   0  0  0  0  0  0  0  0  0  0  0  0
  1  2  1  0
  1 42  1  0
  1 43  1  0
  2  3  2  0
  2  4  1  0
  4  5  2  0
  4  9  1  0
  5  6  1  0
  5 41  1  0
  6  7  2  0
  6 40  1  0
  7  8  1  0
  7 12  1  0
  8  9  2  0
  8 11  1  0
  9 10  1  0
 12 13  1  0
 12 39  1  0
 13 14  2  0
 13 22  1  0
 14 15  1  0
 15 16  2  0
 16 17  1  0
 16 27  1  0
 17 18  1  0
 17 22  2  0
 18 19  2  0
 18 26  1  0
 19 20  1  0
 19 25  1  0
 20 21  2  0
 20 24  1  0
 21 22  1  0
 21 23  1  0
 27 28  2  0
 27 32  1  0
 28 29  1  0
 28 38  1  0
 29 30  2  0
 29 37  1  0
 30 31  1  0
 30 35  1  0
 31 32  2  0
 31 34  1  0
 32 33  1  0
 35 36  1  0
M  END
$$$$

     RDKit          3D

 43 46  0  0  0  0  0  0  0  0999 V2000
    6.6787    0.6486    2.1363 N   0  0  0  0  0  0  0  0  0  0  0  0
    6.5671    0.2713    0.8353 C   0  0  0  0  0  0  0  0  0  0  0  0
    7.5201    0.2895    0.0836 O   0  0  0  0  0  0  0  0  0  0  0  0
    5.2082   -0.1517    0.4010 C   0  0  0  0  0  0  0  0  0  0  0  0
    5.1130   -1.0171   -0.6879 C   0  0  0  0  0  0  0  0  0  0  0  0
    3.8869   -1.4409   -1.1482 C   0  0  0  0  0  0  0  0  0  0  0  0
    2.7101   -0.9877   -0.5463 C   0  0  0  0  0  0  0  0  0  0  0  0
    2.8031   -0.1239    0.5466 C   0  0  0  0  0  0  0  0  0  0  0  0
    4.0360    0.2880    1.0098 C   0  0  0  0  0  0  0  0  0  0  0  0
    4.0721    0.9760    1.8420 H   0  0  0  0  0  0  0  0  0  0  0  0
    1.9055    0.2165    1.0402 H   0  0  0  0  0  0  0  0  0  0  0  0
    1.4974   -1.4368   -1.0485 N   0  0  0  0  0  0  0  0  0  0  0  0
    0.2290   -0.9960   -0.7404 C   0  0  0  0  0  0  0  0  0  0  0  0
   -0.6575   -1.9557   -0.5905 N   0  0  0  0  0  0  0  0  0  0  0  0
   -1.9186   -1.6939   -0.3381 N   0  0  0  0  0  0  0  0  0  0  0  0
   -2.3475   -0.4652   -0.1893 C   0  0  0  0  0  0  0  0  0  0  0  0
   -1.4768    0.6630   -0.3396 C   0  0  0  0  0  0  0  0  0  0  0  0
   -1.8765    2.0006   -0.1632 C   0  0  0  0  0  0  0  0  0  0  0  0
   -1.0035    3.0218   -0.4288 C   0  0  0  0  0  0  0  0  0  0  0  0
    0.2880    2.7493   -0.8973 C   0  0  0  0  0  0  0  0  0  0  0  0
    0.7257    1.4570   -1.0166 C   0  0  0  0  0  0  0  0  0  0  0  0
   -0.1319    0.3903   -0.6928 C   0  0  0  0  0  0  0  0  0  0  0  0
    1.7246    1.2506   -1.3673 H   0  0  0  0  0  0  0  0  0  0  0  0
    0.9458    3.5669   -1.1517 H   0  0  0  0  0  0  0  0  0  0  0  0
   -1.3130    4.0475   -0.2917 H   0  0  0  0  0  0  0  0  0  0  0  0
   -2.8745    2.2093    0.1898 H   0  0  0  0  0  0  0  0  0  0  0  0
   -3.7806   -0.3229    0.1004 C   0  0  0  0  0  0  0  0  0  0  0  0
   -4.3602   -1.1140    1.0877 C   0  0  0  0  0  0  0  0  0  0  0  0
   -5.7077   -1.0138    1.3698 C   0  0  0  0  0  0  0  0  0  0  0  0
   -6.5074   -0.1298    0.6536 C   0  0  0  0  0  0  0  0  0  0  0  0
   -5.9411    0.6419   -0.3572 C   0  0  0  0  0  0  0  0  0  0  0  0
   -4.5925    0.5441   -0.6290 C   0  0  0  0  0  0  0  0  0  0  0  0
   -4.1720    1.1220   -1.4390 H   0  0  0  0  0  0  0  0  0  0  0  0
   -6.5775    1.3054   -0.9209 H   0  0  0  0  0  0  0  0  0  0  0  0
   -7.8374    0.0053    0.8982 O   0  0  0  0  0  0  0  0  0  0  0  0
   -8.1046   -0.5988    1.6016 H   0  0  0  0  0  0  0  0  0  0  0  0
   -6.1472   -1.6270    2.1459 H   0  0  0  0  0  0  0  0  0  0  0  0
   -3.7394   -1.8069    1.6339 H   0  0  0  0  0  0  0  0  0  0  0  0
    1.4975   -2.3946   -1.3770 H   0  0  0  0  0  0  0  0  0  0  0  0
    3.8231   -2.1210   -1.9849 H   0  0  0  0  0  0  0  0  0  0  0  0
    6.0248   -1.3474   -1.1616 H   0  0  0  0  0  0  0  0  0  0  0  0
    5.9464    0.4906    2.8036 H   0  0  0  0  0  0  0  0  0  0  0  0
    7.5948    0.8880    2.4775 H   0  0  0  0  0  0  0  0  0  0  0  0
  1  2  1  0
  1 42  1  0
  1 43  1  0
  2  3  2  0
  2  4  1  0
  4  5  2  0
  4  9  1  0
  5  6  1  0
  5 41  1  0
  6  7  2  0
  6 40  1  0
  7  8  1  0
  7 12  1  0
  8  9  2  0
  8 11  1  0
  9 10  1  0
 12 13  1  0
 12 39  1  0
 13 14  2  0
 13 22  1  0
 14 15  1  0
 15 16  2  0
 16 17  1  0
 16 27  1  0
 17 18  1  0
 17 22  2  0
 18 19  2  0
 18 26  1  0
 19 20  1  0
 19 25  1  0
 20 21  2  0
 20 24  1  0
 21 22  1  0
 21 23  1  0
 27 28  2  0
 27 32  1  0
 28 29  1  0
 28 38  1  0
 29 30  2  0
 29 37  1  0
 30 31  1  0
 30 35  1  0
 31 32  2  0
 31 34  1  0
 32 33  1  0
 35 36  1  0
M  END
$$$$

     RDKit          3D

 43 46  0  0  0  0  0  0  0  0999 V2000
   -6.6601   -0.6470   -2.1542 N   0  0  0  0  0  0  0  0  0  0  0  0
   -6.5545   -0.2816   -0.8494 C   0  0  0  0  0  0  0  0  0  0  0  0
   -7.5085   -0.3153   -0.0994 O   0  0  0  0  0  0  0  0  0  0  0  0
   -5.1996    0.1479   -0.4087 C   0  0  0  0  0  0  0  0  0  0  0  0
   -4.0235   -0.2849   -1.0148 C   0  0  0  0  0  0  0  0  0  0  0  0
   -2.7940    0.1311   -0.5459 C   0  0  0  0  0  0  0  0  0  0  0  0
   -2.7089    0.9923    0.5496 C   0  0  0  0  0  0  0  0  0  0  0  0
   -3.8897    1.4389    1.1484 C   0  0  0  0  0  0  0  0  0  0  0  0
   -5.1123    1.0108    0.6827 C   0  0  0  0  0  0  0  0  0  0  0  0
   -6.0272    1.3358    1.1540 H   0  0  0  0  0  0  0  0  0  0  0  0
   -3.8319    2.1173    1.9869 H   0  0  0  0  0  0  0  0  0  0  0  0
   -1.4993    1.4438    1.0577 N   0  0  0  0  0  0  0  0  0  0  0  0
   -0.2301    1.0036    0.7526 C   0  0  0  0  0  0  0  0  0  0  0  0
    0.6578    1.9622    0.6051 N   0  0  0  0  0  0  0  0  0  0  0  0
    1.9181    1.6991    0.3501 N   0  0  0  0  0  0  0  0  0  0  0  0
    2.3448    0.4703    0.1977 C   0  0  0  0  0  0  0  0  0  0  0  0
    1.4737   -0.6572    0.3517 C   0  0  0  0  0  0  0  0  0  0  0  0
    1.8727   -1.9954    0.1788 C   0  0  0  0  0  0  0  0  0  0  0  0
    0.9996   -3.0156    0.4476 C   0  0  0  0  0  0  0  0  0  0  0  0
   -0.2916   -2.7414    0.9159 C   0  0  0  0  0  0  0  0  0  0  0  0
   -0.7284   -1.4486    1.0326 C   0  0  0  0  0  0  0  0  0  0  0  0
    0.1296   -0.3832    0.7059 C   0  0  0  0  0  0  0  0  0  0  0  0
   -1.7270   -1.2408    1.3835 H   0  0  0  0  0  0  0  0  0  0  0  0
   -0.9497   -3.5582    1.1723 H   0  0  0  0  0  0  0  0  0  0  0  0
    1.3083   -4.0419    0.3126 H   0  0  0  0  0  0  0  0  0  0  0  0
    2.8704   -2.2050   -0.1746 H   0  0  0  0  0  0  0  0  0  0  0  0
    3.7763    0.3253   -0.1004 C   0  0  0  0  0  0  0  0  0  0  0  0
    4.5904   -0.5310    0.6344 C   0  0  0  0  0  0  0  0  0  0  0  0
    5.9395   -0.6314    0.3522 C   0  0  0  0  0  0  0  0  0  0  0  0
    6.4984    0.1236   -0.6724 C   0  0  0  0  0  0  0  0  0  0  0  0
    5.6930    0.9983   -1.3977 C   0  0  0  0  0  0  0  0  0  0  0  0
    4.3507    1.1021   -1.1051 C   0  0  0  0  0  0  0  0  0  0  0  0
    3.7249    1.7870   -1.6553 H   0  0  0  0  0  0  0  0  0  0  0  0
    6.1436    1.5883   -2.1796 H   0  0  0  0  0  0  0  0  0  0  0  0
    7.8172    0.0465   -0.9913 O   0  0  0  0  0  0  0  0  0  0  0  0
    8.2624   -0.5769   -0.4046 H   0  0  0  0  0  0  0  0  0  0  0  0
    6.5660   -1.2946    0.9350 H   0  0  0  0  0  0  0  0  0  0  0  0
    4.1767   -1.0993    1.4550 H   0  0  0  0  0  0  0  0  0  0  0  0
   -1.5016    2.4023    1.3842 H   0  0  0  0  0  0  0  0  0  0  0  0
   -1.8932   -0.2042   -1.0371 H   0  0  0  0  0  0  0  0  0  0  0  0
   -4.0539   -0.9706   -1.8492 H   0  0  0  0  0  0  0  0  0  0  0  0
   -5.9280   -0.4748   -2.8183 H   0  0  0  0  0  0  0  0  0  0  0  0
   -7.5736   -0.8897   -2.5004 H   0  0  0  0  0  0  0  0  0  0  0  0
  1  2  1  0
  1 42  1  0
  1 43  1  0
  2  3  2  0
  2  4  1  0
  4  5  2  0
  4  9  1  0
  5  6  1  0
  5 41  1  0
  6  7  2  0
  6 40  1  0
  7  8  1  0
  7 12  1  0
  8  9  2  0
  8 11  1  0
  9 10  1  0
 12 13  1  0
 12 39  1  0
 13 14  2  0
 13 22  1  0
 14 15  1  0
 15 16  2  0
 16 17  1  0
 16 27  1  0
 17 18  1  0
 17 22  2  0
 18 19  2  0
 18 26  1  0
 19 20  1  0
 19 25  1  0
 20 21  2  0
 20 24  1  0
 21 22  1  0
 21 23  1  0
 27 28  2  0
 27 32  1  0
 28 29  1  0
 28 38  1  0
 29 30  2  0
 29 37  1  0
 30 31  1  0
 30 35  1  0
 31 32  2  0
 31 34  1  0
 32 33  1  0
 35 36  1  0
M  END
$$$$
