
     RDKit          3D

 26 28  0  0  0  0  0  0  0  0999 V2000
   -1.2277   -2.7654    0.2706 O   0  0  0  0  0  0  0  0  0  0  0  0
   -0.7069   -1.6681    0.1609 C   0  0  0  0  0  0  0  0  0  0  0  0
    0.6560   -1.6194    0.1852 N   0  0  0  0  0  0  0  0  0  0  0  0
    1.6193   -0.6232    0.0236 C   0  0  0  0  0  0  0  0  0  0  0  0
    2.9098   -1.0457   -0.2815 C   0  0  0  0  0  0  0  0  0  0  0  0
    3.9590   -0.1536   -0.4041 C   0  0  0  0  0  0  0  0  0  0  0  0
    3.7260    1.1956   -0.2141 C   0  0  0  0  0  0  0  0  0  0  0  0
    2.4483    1.6296    0.0838 C   0  0  0  0  0  0  0  0  0  0  0  0
    1.3793    0.7433    0.2064 C   0  0  0  0  0  0  0  0  0  0  0  0
    0.1459    1.2814    0.5578 N   0  0  0  0  0  0  0  0  0  0  0  0
   -1.1272    0.8777    0.2043 C   0  0  0  0  0  0  0  0  0  0  0  0
   -2.0911    1.8887    0.1084 C   0  0  0  0  0  0  0  0  0  0  0  0
   -3.4036    1.6171   -0.2128 C   0  0  0  0  0  0  0  0  0  0  0  0
   -3.7983    0.3102   -0.4513 C   0  0  0  0  0  0  0  0  0  0  0  0
   -2.8665   -0.6987   -0.3335 C   0  0  0  0  0  0  0  0  0  0  0  0
   -1.5331   -0.4475   -0.0053 C   0  0  0  0  0  0  0  0  0  0  0  0
   -3.1493   -1.7298   -0.4825 H   0  0  0  0  0  0  0  0  0  0  0  0
   -4.8197    0.0829   -0.7123 H   0  0  0  0  0  0  0  0  0  0  0  0
   -4.1157    2.4260   -0.2806 H   0  0  0  0  0  0  0  0  0  0  0  0
   -1.7882    2.9109    0.2927 H   0  0  0  0  0  0  0  0  0  0  0  0
    0.2017    2.2802    0.7149 H   0  0  0  0  0  0  0  0  0  0  0  0
    2.2654    2.6842    0.2383 H   0  0  0  0  0  0  0  0  0  0  0  0
    4.5303    1.9099   -0.2957 H   0  0  0  0  0  0  0  0  0  0  0  0
    4.9479   -0.5142   -0.6388 H   0  0  0  0  0  0  0  0  0  0  0  0
    3.0881   -2.1032   -0.4150 H   0  0  0  0  0  0  0  0  0  0  0  0
    1.0475   -2.5535    0.2475 H   0  0  0  0  0  0  0  0  0  0  0  0
  1  2  2  0
  2  3  1  0
  2 16  1  0
  3  4  1  0
  3 26  1  0
  4  5  2  0
  4  9  1  0
  5  6  1  0
  5 25  1  0
  6  7  2  0
  6 24  1  0
  7  8  1  0
  7 23  1  0
  8  9  2  0
  8 22  1  0
  9 10  1  0
 10 11  1  0
 10 21  1  0
 11 12  2  0
 11 16  1  0
 12 13  1  0
 12 20  1  0
 13 14  2  0
 13 19  1  0
 14 15  1  0
 14 18  1  0
 15 16  2  0
 15 17  1  0
M  END
$$$$
