
     RDKit          3D

 30 33  0  0  0  0  0  0  0  0999 V2000
   -1.7962   -3.4388   -0.6831 O   0  0  0  0  0  0  0  0  0  0  0  0
   -2.0597   -2.3875   -0.1486 C   0  0  0  0  0  0  0  0  0  0  0  0
   -3.2597   -1.7783   -0.4044 N   0  0  0  0  0  0  0  0  0  0  0  0
   -3.7972   -0.5421   -0.0630 C   0  0  0  0  0  0  0  0  0  0  0  0
   -5.1867   -0.4312    0.0074 C   0  0  0  0  0  0  0  0  0  0  0  0
   -5.7734    0.8025    0.2134 C   0  0  0  0  0  0  0  0  0  0  0  0
   -4.9448    1.9137    0.3016 C   0  0  0  0  0  0  0  0  0  0  0  0
   -3.6334    1.8340    0.2353 N   0  0  0  0  0  0  0  0  0  0  0  0
   -3.0481    0.6452    0.0860 C   0  0  0  0  0  0  0  0  0  0  0  0
   -1.6075    0.6543    0.0358 C   0  0  0  0  0  0  0  0  0  0  0  0
   -0.7343   -0.3703    0.3298 C   0  0  0  0  0  0  0  0  0  0  0  0
    0.5765    0.1378    0.1209 C   0  0  0  0  0  0  0  0  0  0  0  0
    1.8534   -0.4131    0.2414 C   0  0  0  0  0  0  0  0  0  0  0  0
    2.9243    0.4006   -0.0416 C   0  0  0  0  0  0  0  0  0  0  0  0
    2.7823    1.7344   -0.4379 C   0  0  0  0  0  0  0  0  0  0  0  0
    1.5306    2.2936   -0.5621 C   0  0  0  0  0  0  0  0  0  0  0  0
    0.4281    1.4941   -0.2807 C   0  0  0  0  0  0  0  0  0  0  0  0
   -0.9006    1.7757   -0.3156 N   0  0  0  0  0  0  0  0  0  0  0  0
   -1.3370    2.6560   -0.5315 H   0  0  0  0  0  0  0  0  0  0  0  0
    1.4109    3.3215   -0.8678 H   0  0  0  0  0  0  0  0  0  0  0  0
    3.6641    2.3202   -0.6454 H   0  0  0  0  0  0  0  0  0  0  0  0
    4.6916   -0.3071    0.1115 Br  0  0  0  0  0  0  0  0  0  0  0  0
    1.9954   -1.4400    0.5394 H   0  0  0  0  0  0  0  0  0  0  0  0
   -1.1515   -1.7005    0.8502 C   0  0  0  0  0  0  0  0  0  0  0  0
   -0.2870   -2.3405    1.0207 H   0  0  0  0  0  0  0  0  0  0  0  0
   -1.7019   -1.5811    1.7890 H   0  0  0  0  0  0  0  0  0  0  0  0
   -5.3471    2.9099    0.4241 H   0  0  0  0  0  0  0  0  0  0  0  0
   -6.8448    0.9030    0.2797 H   0  0  0  0  0  0  0  0  0  0  0  0
   -5.7953   -1.3165   -0.1156 H   0  0  0  0  0  0  0  0  0  0  0  0
   -3.8927   -2.3784   -0.9233 H   0  0  0  0  0  0  0  0  0  0  0  0
  1  2  2  0
  2  3  1  0
  2 24  1  0
  3  4  1  0
  3 30  1  0
  4  5  2  0
  4  9  1  0
  5  6  1  0
  5 29  1  0
  6  7  2  0
  6 28  1  0
  7  8  1  0
  7 27  1  0
  8  9  2  0
  9 10  1  0
 10 11  2  0
 10 18  1  0
 11 12  1  0
 11 24  1  0
 12 13  2  0
 12 17  1  0
 13 14  1  0
 13 23  1  0
 14 15  2  0
 14 22  1  0
 15 16  1  0
 15 21  1  0
 16 17  2  0
 16 20  1  0
 17 18  1  0
 18 19  1  0
 24 25  1  0
 24 26  1  0
M  END
$$$$
