
     RDKit          3D

 42 45  0  0  0  0  0  0  0  0999 V2000
    4.0798    3.1834    1.5980 C   0  0  0  0  0  0  0  0  0  0  0  0
    3.6460    2.4141    0.4533 N   0  0  0  0  0  0  0  0  0  0  0  0
    2.3233    2.8110    0.0001 C   0  0  0  0  0  0  0  0  0  0  0  0
    1.9765    2.0451   -1.2752 C   0  0  0  0  0  0  0  0  0  0  0  0
    2.0259    0.6158   -1.0453 N   0  0  0  0  0  0  0  0  0  0  0  0
    0.8849   -0.0123   -0.6361 C   0  0  0  0  0  0  0  0  0  0  0  0
   -0.1875    0.6865   -0.5514 N   0  0  0  0  0  0  0  0  0  0  0  0
   -1.4027    0.2677   -0.0833 C   0  0  0  0  0  0  0  0  0  0  0  0
   -2.5298    0.9336   -0.5680 C   0  0  0  0  0  0  0  0  0  0  0  0
   -3.7751    0.7032   -0.0178 C   0  0  0  0  0  0  0  0  0  0  0  0
   -3.9367   -0.1702    1.0423 C   0  0  0  0  0  0  0  0  0  0  0  0
   -2.8258   -0.8457    1.5201 C   0  0  0  0  0  0  0  0  0  0  0  0
   -1.5683   -0.6552    0.9698 C   0  0  0  0  0  0  0  0  0  0  0  0
   -0.4687   -1.3713    1.4936 N   0  0  0  0  0  0  0  0  0  0  0  0
    0.3285   -2.1084    0.6117 C   0  0  0  0  0  0  0  0  0  0  0  0
    0.5239   -3.4724    0.8169 C   0  0  0  0  0  0  0  0  0  0  0  0
    1.2769   -4.2198   -0.0684 C   0  0  0  0  0  0  0  0  0  0  0  0
    1.8246   -3.6205   -1.1904 C   0  0  0  0  0  0  0  0  0  0  0  0
    1.6755   -2.2582   -1.3778 C   0  0  0  0  0  0  0  0  0  0  0  0
    0.9650   -1.4834   -0.4670 C   0  0  0  0  0  0  0  0  0  0  0  0
    2.1129   -1.7777   -2.2407 H   0  0  0  0  0  0  0  0  0  0  0  0
    2.3778   -4.2078   -1.9071 H   0  0  0  0  0  0  0  0  0  0  0  0
    1.4172   -5.2759    0.1073 H   0  0  0  0  0  0  0  0  0  0  0  0
    0.0720   -3.9460    1.6778 H   0  0  0  0  0  0  0  0  0  0  0  0
   -0.7459   -1.9213    2.3004 H   0  0  0  0  0  0  0  0  0  0  0  0
   -2.9432   -1.5387    2.3426 H   0  0  0  0  0  0  0  0  0  0  0  0
   -4.9074   -0.3277    1.4835 H   0  0  0  0  0  0  0  0  0  0  0  0
   -5.1522    1.5411   -0.6511 Cl  0  0  0  0  0  0  0  0  0  0  0  0
   -2.4024    1.6374   -1.3744 H   0  0  0  0  0  0  0  0  0  0  0  0
    3.3306    0.2178   -0.5646 C   0  0  0  0  0  0  0  0  0  0  0  0
    4.0665    0.4618   -1.3365 H   0  0  0  0  0  0  0  0  0  0  0  0
    3.6725    0.9884    0.7154 C   0  0  0  0  0  0  0  0  0  0  0  0
    2.9516    0.7038    1.5059 H   0  0  0  0  0  0  0  0  0  0  0  0
    4.6762    0.7127    1.0479 H   0  0  0  0  0  0  0  0  0  0  0  0
    3.3594   -0.8525   -0.3640 H   0  0  0  0  0  0  0  0  0  0  0  0
    2.7099    2.2818   -2.0510 H   0  0  0  0  0  0  0  0  0  0  0  0
    0.9732    2.3037   -1.6100 H   0  0  0  0  0  0  0  0  0  0  0  0
    1.5502    2.6056    0.7610 H   0  0  0  0  0  0  0  0  0  0  0  0
    2.3336    3.8832   -0.2053 H   0  0  0  0  0  0  0  0  0  0  0  0
    3.4294    3.0455    2.4761 H   0  0  0  0  0  0  0  0  0  0  0  0
    4.0862    4.2395    1.3331 H   0  0  0  0  0  0  0  0  0  0  0  0
    5.0927    2.8848    1.8648 H   0  0  0  0  0  0  0  0  0  0  0  0
  1  2  1  0
  1 40  1  0
  1 41  1  0
  1 42  1  0
  2  3  1  0
  2 32  1  0
  3  4  1  0
  3 38  1  0
  3 39  1  0
  4  5  1  0
  4 36  1  0
  4 37  1  0
  5  6  1  0
  5 30  1  0
  6  7  2  0
  6 20  1  0
  7  8  1  0
  8  9  1  0
  8 13  2  0
  9 10  2  0
  9 29  1  0
 10 11  1  0
 10 28  1  0
 11 12  2  0
 11 27  1  0
 12 13  1  0
 12 26  1  0
 13 14  1  0
 14 15  1  0
 14 25  1  0
 15 16  1  0
 15 20  2  0
 16 17  2  0
 16 24  1  0
 17 18  1  0
 17 23  1  0
 18 19  2  0
 18 22  1  0
 19 20  1  0
 19 21  1  0
 30 31  1  0
 30 32  1  0
 30 35  1  0
 32 33  1  0
 32 34  1  0
M  END
$$$$

     RDKit          3D

 42 45  0  0  0  0  0  0  0  0999 V2000
   -4.8001   -2.8859    0.3417 C   0  0  0  0  0  0  0  0  0  0  0  0
   -3.6335   -2.2962    0.9614 N   0  0  0  0  0  0  0  0  0  0  0  0
   -3.6542   -0.8505    1.0191 C   0  0  0  0  0  0  0  0  0  0  0  0
   -3.3225   -0.1731   -0.3272 C   0  0  0  0  0  0  0  0  0  0  0  0
   -2.0445   -0.6539   -0.8087 N   0  0  0  0  0  0  0  0  0  0  0  0
   -0.8744   -0.0207   -0.5085 C   0  0  0  0  0  0  0  0  0  0  0  0
    0.1877   -0.7367   -0.4199 N   0  0  0  0  0  0  0  0  0  0  0  0
    1.4298   -0.3109   -0.0394 C   0  0  0  0  0  0  0  0  0  0  0  0
    2.5216   -1.0372   -0.5186 C   0  0  0  0  0  0  0  0  0  0  0  0
    3.7944   -0.7924   -0.0428 C   0  0  0  0  0  0  0  0  0  0  0  0
    4.0203    0.1569    0.9372 C   0  0  0  0  0  0  0  0  0  0  0  0
    2.9447    0.8920    1.4081 C   0  0  0  0  0  0  0  0  0  0  0  0
    1.6605    0.6873    0.9298 C   0  0  0  0  0  0  0  0  0  0  0  0
    0.5994    1.4673    1.4423 N   0  0  0  0  0  0  0  0  0  0  0  0
   -0.2180    2.1533    0.5385 C   0  0  0  0  0  0  0  0  0  0  0  0
   -0.3716    3.5343    0.6387 C   0  0  0  0  0  0  0  0  0  0  0  0
   -1.1425    4.2281   -0.2743 C   0  0  0  0  0  0  0  0  0  0  0  0
   -1.7505    3.5553   -1.3211 C   0  0  0  0  0  0  0  0  0  0  0  0
   -1.6428    2.1787   -1.4013 C   0  0  0  0  0  0  0  0  0  0  0  0
   -0.9153    1.4605   -0.4582 C   0  0  0  0  0  0  0  0  0  0  0  0
   -2.1274    1.6431   -2.2047 H   0  0  0  0  0  0  0  0  0  0  0  0
   -2.3176    4.0977   -2.0619 H   0  0  0  0  0  0  0  0  0  0  0  0
   -1.2495    5.2985   -0.1808 H   0  0  0  0  0  0  0  0  0  0  0  0
    0.1278    4.0633    1.4389 H   0  0  0  0  0  0  0  0  0  0  0  0
    0.9227    2.0706    2.1918 H   0  0  0  0  0  0  0  0  0  0  0  0
    3.1120    1.6441    2.1676 H   0  0  0  0  0  0  0  0  0  0  0  0
    5.0128    0.3269    1.3217 H   0  0  0  0  0  0  0  0  0  0  0  0
    5.1257   -1.7072   -0.6679 Cl  0  0  0  0  0  0  0  0  0  0  0  0
    2.3454   -1.7986   -1.2609 H   0  0  0  0  0  0  0  0  0  0  0  0
   -2.0307   -2.0993   -0.9326 C   0  0  0  0  0  0  0  0  0  0  0  0
   -1.0373   -2.4020   -1.2591 H   0  0  0  0  0  0  0  0  0  0  0  0
   -2.3698   -2.7550    0.4145 C   0  0  0  0  0  0  0  0  0  0  0  0
   -2.4012   -3.8403    0.3098 H   0  0  0  0  0  0  0  0  0  0  0  0
   -1.5838   -2.4955    1.1296 H   0  0  0  0  0  0  0  0  0  0  0  0
   -2.7706   -2.3778   -1.6897 H   0  0  0  0  0  0  0  0  0  0  0  0
   -3.3014    0.9070   -0.1909 H   0  0  0  0  0  0  0  0  0  0  0  0
   -4.0868   -0.4194   -1.0718 H   0  0  0  0  0  0  0  0  0  0  0  0
   -4.6347   -0.5207    1.3677 H   0  0  0  0  0  0  0  0  0  0  0  0
   -2.9010   -0.5404    1.7518 H   0  0  0  0  0  0  0  0  0  0  0  0
   -4.9265   -2.6429   -0.7226 H   0  0  0  0  0  0  0  0  0  0  0  0
   -5.6865   -2.5477    0.8774 H   0  0  0  0  0  0  0  0  0  0  0  0
   -4.7330   -3.9687    0.4392 H   0  0  0  0  0  0  0  0  0  0  0  0
  1  2  1  0
  1 40  1  0
  1 41  1  0
  1 42  1  0
  2  3  1  0
  2 32  1  0
  3  4  1  0
  3 38  1  0
  3 39  1  0
  4  5  1  0
  4 36  1  0
  4 37  1  0
  5  6  1  0
  5 30  1  0
  6  7  2  0
  6 20  1  0
  7  8  1  0
  8  9  1  0
  8 13  2  0
  9 10  2  0
  9 29  1  0
 10 11  1  0
 10 28  1  0
 11 12  2  0
 11 27  1  0
 12 13  1  0
 12 26  1  0
 13 14  1  0
 14 15  1  0
 14 25  1  0
 15 16  1  0
 15 20  2  0
 16 17  2  0
 16 24  1  0
 17 18  1  0
 17 23  1  0
 18 19  2  0
 18 22  1  0
 19 20  1  0
 19 21  1  0
 30 31  1  0
 30 32  1  0
 30 35  1  0
 32 33  1  0
 32 34  1  0
M  END
$$$$

     RDKit          3D

 42 45  0  0  0  0  0  0  0  0999 V2000
   -5.6542   -2.4597    0.3725 C   0  0  0  0  0  0  0  0  0  0  0  0
   -4.4758   -1.8921   -0.2432 N   0  0  0  0  0  0  0  0  0  0  0  0
   -4.3578   -0.4701    0.0165 C   0  0  0  0  0  0  0  0  0  0  0  0
   -3.1673    0.0890   -0.7622 C   0  0  0  0  0  0  0  0  0  0  0  0
   -1.9656   -0.6021   -0.3640 N   0  0  0  0  0  0  0  0  0  0  0  0
   -0.7526   -0.0263   -0.1714 C   0  0  0  0  0  0  0  0  0  0  0  0
    0.2816   -0.7868   -0.2247 N   0  0  0  0  0  0  0  0  0  0  0  0
    1.5884   -0.3858   -0.2034 C   0  0  0  0  0  0  0  0  0  0  0  0
    2.5252   -1.3041    0.2745 C   0  0  0  0  0  0  0  0  0  0  0  0
    3.8784   -1.0546    0.1612 C   0  0  0  0  0  0  0  0  0  0  0  0
    4.3444    0.0957   -0.4488 C   0  0  0  0  0  0  0  0  0  0  0  0
    3.4218    1.0198   -0.9115 C   0  0  0  0  0  0  0  0  0  0  0  0
    2.0581    0.8087   -0.7880 C   0  0  0  0  0  0  0  0  0  0  0  0
    1.1610    1.7883   -1.2714 N   0  0  0  0  0  0  0  0  0  0  0  0
    0.1853    2.2793   -0.3998 C   0  0  0  0  0  0  0  0  0  0  0  0
    0.1005    3.6446   -0.1350 C   0  0  0  0  0  0  0  0  0  0  0  0
   -0.8248    4.1335    0.7673 C   0  0  0  0  0  0  0  0  0  0  0  0
   -1.6596    3.2610    1.4448 C   0  0  0  0  0  0  0  0  0  0  0  0
   -1.6165    1.9097    1.1513 C   0  0  0  0  0  0  0  0  0  0  0  0
   -0.7337    1.4100    0.2003 C   0  0  0  0  0  0  0  0  0  0  0  0
   -2.2730    1.2251    1.6680 H   0  0  0  0  0  0  0  0  0  0  0  0
   -2.3509    3.6320    2.1859 H   0  0  0  0  0  0  0  0  0  0  0  0
   -0.8758    5.1948    0.9602 H   0  0  0  0  0  0  0  0  0  0  0  0
    0.7764    4.3220   -0.6386 H   0  0  0  0  0  0  0  0  0  0  0  0
    1.6598    2.5363   -1.7422 H   0  0  0  0  0  0  0  0  0  0  0  0
    3.7755    1.9281   -1.3810 H   0  0  0  0  0  0  0  0  0  0  0  0
    5.4020    0.2736   -0.5557 H   0  0  0  0  0  0  0  0  0  0  0  0
    5.0100   -2.2144    0.7727 Cl  0  0  0  0  0  0  0  0  0  0  0  0
    2.1666   -2.2162    0.7232 H   0  0  0  0  0  0  0  0  0  0  0  0
   -2.0663   -2.0240   -0.6022 C   0  0  0  0  0  0  0  0  0  0  0  0
   -1.1379   -2.4901   -0.2750 H   0  0  0  0  0  0  0  0  0  0  0  0
   -3.2623   -2.5733    0.1722 C   0  0  0  0  0  0  0  0  0  0  0  0
   -3.3729   -3.6386   -0.0400 H   0  0  0  0  0  0  0  0  0  0  0  0
   -3.0813   -2.4507    1.2558 H   0  0  0  0  0  0  0  0  0  0  0  0
   -2.2091   -2.2163   -1.6724 H   0  0  0  0  0  0  0  0  0  0  0  0
   -3.0723    1.1619   -0.6013 H   0  0  0  0  0  0  0  0  0  0  0  0
   -3.3433   -0.0935   -1.8319 H   0  0  0  0  0  0  0  0  0  0  0  0
   -5.2739    0.0231   -0.3166 H   0  0  0  0  0  0  0  0  0  0  0  0
   -4.2245   -0.2634    1.0950 H   0  0  0  0  0  0  0  0  0  0  0  0
   -5.7220   -3.5131    0.1054 H   0  0  0  0  0  0  0  0  0  0  0  0
   -6.5365   -1.9468   -0.0077 H   0  0  0  0  0  0  0  0  0  0  0  0
   -5.6451   -2.3759    1.4709 H   0  0  0  0  0  0  0  0  0  0  0  0
  1  2  1  0
  1 40  1  0
  1 41  1  0
  1 42  1  0
  2  3  1  0
  2 32  1  0
  3  4  1  0
  3 38  1  0
  3 39  1  0
  4  5  1  0
  4 36  1  0
  4 37  1  0
  5  6  1  0
  5 30  1  0
  6  7  2  0
  6 20  1  0
  7  8  1  0
  8  9  1  0
  8 13  2  0
  9 10  2  0
  9 29  1  0
 10 11  1  0
 10 28  1  0
 11 12  2  0
 11 27  1  0
 12 13  1  0
 12 26  1  0
 13 14  1  0
 14 15  1  0
 14 25  1  0
 15 16  1  0
 15 20  2  0
 16 17  2  0
 16 24  1  0
 17 18  1  0
 17 23  1  0
 18 19  2  0
 18 22  1  0
 19 20  1  0
 19 21  1  0
 30 31  1  0
 30 32  1  0
 30 35  1  0
 32 33  1  0
 32 34  1  0
M  END
$$$$

     RDKit          3D

 42 45  0  0  0  0  0  0  0  0999 V2000
    2.4283    1.6295    2.1238 C   0  0  0  0  0  0  0  0  0  0  0  0
    2.9795    2.4606    1.0716 N   0  0  0  0  0  0  0  0  0  0  0  0
    1.9771    3.1217    0.2418 C   0  0  0  0  0  0  0  0  0  0  0  0
    1.7979    2.4256   -1.1213 C   0  0  0  0  0  0  0  0  0  0  0  0
    2.0101    1.0007   -0.9834 N   0  0  0  0  0  0  0  0  0  0  0  0
    0.9473    0.2201   -0.6508 C   0  0  0  0  0  0  0  0  0  0  0  0
   -0.2017    0.7868   -0.5607 N   0  0  0  0  0  0  0  0  0  0  0  0
   -1.3613    0.2139   -0.1193 C   0  0  0  0  0  0  0  0  0  0  0  0
   -2.5578    0.7492   -0.5999 C   0  0  0  0  0  0  0  0  0  0  0  0
   -3.7692    0.3538   -0.0684 C   0  0  0  0  0  0  0  0  0  0  0  0
   -3.8311   -0.5603    0.9677 C   0  0  0  0  0  0  0  0  0  0  0  0
   -2.6495   -1.1070    1.4408 C   0  0  0  0  0  0  0  0  0  0  0  0
   -1.4215   -0.7488    0.9091 C   0  0  0  0  0  0  0  0  0  0  0  0
   -0.2434   -1.3370    1.4259 N   0  0  0  0  0  0  0  0  0  0  0  0
    0.6322   -1.9589    0.5290 C   0  0  0  0  0  0  0  0  0  0  0  0
    0.9812   -3.2966    0.6995 C   0  0  0  0  0  0  0  0  0  0  0  0
    1.8184   -3.9285   -0.2002 C   0  0  0  0  0  0  0  0  0  0  0  0
    2.3011   -3.2395   -1.3002 C   0  0  0  0  0  0  0  0  0  0  0  0
    1.9991   -1.8983   -1.4520 C   0  0  0  0  0  0  0  0  0  0  0  0
    1.1972   -1.2364   -0.5291 C   0  0  0  0  0  0  0  0  0  0  0  0
    2.3874   -1.3483   -2.2962 H   0  0  0  0  0  0  0  0  0  0  0  0
    2.9227   -3.7394   -2.0269 H   0  0  0  0  0  0  0  0  0  0  0  0
    2.0773   -4.9662   -0.0521 H   0  0  0  0  0  0  0  0  0  0  0  0
    0.5831   -3.8413    1.5446 H   0  0  0  0  0  0  0  0  0  0  0  0
   -0.4557   -1.9333    2.2194 H   0  0  0  0  0  0  0  0  0  0  0  0
   -2.6870   -1.8302    2.2446 H   0  0  0  0  0  0  0  0  0  0  0  0
   -4.7787   -0.8467    1.3940 H   0  0  0  0  0  0  0  0  0  0  0  0
   -5.2339    1.0330   -0.6955 Cl  0  0  0  0  0  0  0  0  0  0  0  0
   -2.5120    1.4837   -1.3875 H   0  0  0  0  0  0  0  0  0  0  0  0
    3.3755    0.6696   -0.6295 C   0  0  0  0  0  0  0  0  0  0  0  0
    3.9826    0.5599   -1.5373 H   0  0  0  0  0  0  0  0  0  0  0  0
    3.9681    1.7983    0.2545 C   0  0  0  0  0  0  0  0  0  0  0  0
    4.7435    1.3831    0.9013 H   0  0  0  0  0  0  0  0  0  0  0  0
    4.4303    2.5633   -0.3755 H   0  0  0  0  0  0  0  0  0  0  0  0
    3.3934   -0.2771   -0.0883 H   0  0  0  0  0  0  0  0  0  0  0  0
    2.5270    2.7975   -1.8469 H   0  0  0  0  0  0  0  0  0  0  0  0
    0.7902    2.5853   -1.5008 H   0  0  0  0  0  0  0  0  0  0  0  0
    1.0271    3.1271    0.7756 H   0  0  0  0  0  0  0  0  0  0  0  0
    2.2913    4.1599    0.0815 H   0  0  0  0  0  0  0  0  0  0  0  0
    1.8546    2.2645    2.7983 H   0  0  0  0  0  0  0  0  0  0  0  0
    3.2524    1.1916    2.6865 H   0  0  0  0  0  0  0  0  0  0  0  0
    1.7742    0.8213    1.7733 H   0  0  0  0  0  0  0  0  0  0  0  0
  1  2  1  0
  1 40  1  0
  1 41  1  0
  1 42  1  0
  2  3  1  0
  2 32  1  0
  3  4  1  0
  3 38  1  0
  3 39  1  0
  4  5  1  0
  4 36  1  0
  4 37  1  0
  5  6  1  0
  5 30  1  0
  6  7  2  0
  6 20  1  0
  7  8  1  0
  8  9  1  0
  8 13  2  0
  9 10  2  0
  9 29  1  0
 10 11  1  0
 10 28  1  0
 11 12  2  0
 11 27  1  0
 12 13  1  0
 12 26  1  0
 13 14  1  0
 14 15  1  0
 14 25  1  0
 15 16  1  0
 15 20  2  0
 16 17  2  0
 16 24  1  0
 17 18  1  0
 17 23  1  0
 18 19  2  0
 18 22  1  0
 19 20  1  0
 19 21  1  0
 30 31  1  0
 30 32  1  0
 30 35  1  0
 32 33  1  0
 32 34  1  0
M  END
$$$$

     RDKit          3D

 42 45  0  0  0  0  0  0  0  0999 V2000
   -4.7614   -3.0106    1.2110 C   0  0  0  0  0  0  0  0  0  0  0  0
   -4.4475   -2.0137    0.2123 N   0  0  0  0  0  0  0  0  0  0  0  0
   -4.0607   -0.7521    0.8264 C   0  0  0  0  0  0  0  0  0  0  0  0
   -3.2789    0.1120   -0.1592 C   0  0  0  0  0  0  0  0  0  0  0  0
   -2.0197   -0.5302   -0.4713 N   0  0  0  0  0  0  0  0  0  0  0  0
   -0.8046    0.0549   -0.3187 C   0  0  0  0  0  0  0  0  0  0  0  0
    0.2060   -0.7342   -0.2292 N   0  0  0  0  0  0  0  0  0  0  0  0
    1.4964   -0.3757    0.0486 C   0  0  0  0  0  0  0  0  0  0  0  0
    2.5018   -1.2196   -0.4269 C   0  0  0  0  0  0  0  0  0  0  0  0
    3.8160   -1.0356   -0.0456 C   0  0  0  0  0  0  0  0  0  0  0  0
    4.1705   -0.0294    0.8342 C   0  0  0  0  0  0  0  0  0  0  0  0
    3.1815    0.8220    1.2993 C   0  0  0  0  0  0  0  0  0  0  0  0
    1.8585    0.6772    0.9138 C   0  0  0  0  0  0  0  0  0  0  0  0
    0.8915    1.5760    1.4181 N   0  0  0  0  0  0  0  0  0  0  0  0
    0.0608    2.2464    0.5166 C   0  0  0  0  0  0  0  0  0  0  0  0
    0.0004    3.6384    0.5248 C   0  0  0  0  0  0  0  0  0  0  0  0
   -0.7856    4.3185   -0.3858 C   0  0  0  0  0  0  0  0  0  0  0  0
   -1.5042    3.6177   -1.3394 C   0  0  0  0  0  0  0  0  0  0  0  0
   -1.4893    2.2346   -1.3244 C   0  0  0  0  0  0  0  0  0  0  0  0
   -0.7455    1.5347   -0.3810 C   0  0  0  0  0  0  0  0  0  0  0  0
   -2.0593    1.6819   -2.0560 H   0  0  0  0  0  0  0  0  0  0  0  0
   -2.0856    4.1442   -2.0804 H   0  0  0  0  0  0  0  0  0  0  0  0
   -0.8185    5.3975   -0.3637 H   0  0  0  0  0  0  0  0  0  0  0  0
    0.5849    4.1864    1.2512 H   0  0  0  0  0  0  0  0  0  0  0  0
    1.3048    2.2105    2.0938 H   0  0  0  0  0  0  0  0  0  0  0  0
    3.4493    1.6187    1.9805 H   0  0  0  0  0  0  0  0  0  0  0  0
    5.1945    0.0947    1.1466 H   0  0  0  0  0  0  0  0  0  0  0  0
    5.0363   -2.0992   -0.6621 Cl  0  0  0  0  0  0  0  0  0  0  0  0
    2.2245   -2.0236   -1.0891 H   0  0  0  0  0  0  0  0  0  0  0  0
   -2.0557   -1.9817   -0.4790 C   0  0  0  0  0  0  0  0  0  0  0  0
   -1.7140   -2.3773    0.4863 H   0  0  0  0  0  0  0  0  0  0  0  0
   -3.4754   -2.4518   -0.7819 C   0  0  0  0  0  0  0  0  0  0  0  0
   -3.7816   -2.0553   -1.7566 H   0  0  0  0  0  0  0  0  0  0  0  0
   -3.4936   -3.5403   -0.8469 H   0  0  0  0  0  0  0  0  0  0  0  0
   -1.3539   -2.3340   -1.2384 H   0  0  0  0  0  0  0  0  0  0  0  0
   -3.0941    1.0932    0.2809 H   0  0  0  0  0  0  0  0  0  0  0  0
   -3.8790    0.2462   -1.0669 H   0  0  0  0  0  0  0  0  0  0  0  0
   -4.9711   -0.2283    1.1355 H   0  0  0  0  0  0  0  0  0  0  0  0
   -3.4384   -0.9085    1.7250 H   0  0  0  0  0  0  0  0  0  0  0  0
   -5.5476   -2.6198    1.8562 H   0  0  0  0  0  0  0  0  0  0  0  0
   -3.9002   -3.2831    1.8410 H   0  0  0  0  0  0  0  0  0  0  0  0
   -5.1350   -3.9061    0.7178 H   0  0  0  0  0  0  0  0  0  0  0  0
  1  2  1  0
  1 40  1  0
  1 41  1  0
  1 42  1  0
  2  3  1  0
  2 32  1  0
  3  4  1  0
  3 38  1  0
  3 39  1  0
  4  5  1  0
  4 36  1  0
  4 37  1  0
  5  6  1  0
  5 30  1  0
  6  7  2  0
  6 20  1  0
  7  8  1  0
  8  9  1  0
  8 13  2  0
  9 10  2  0
  9 29  1  0
 10 11  1  0
 10 28  1  0
 11 12  2  0
 11 27  1  0
 12 13  1  0
 12 26  1  0
 13 14  1  0
 14 15  1  0
 14 25  1  0
 15 16  1  0
 15 20  2  0
 16 17  2  0
 16 24  1  0
 17 18  1  0
 17 23  1  0
 18 19  2  0
 18 22  1  0
 19 20  1  0
 19 21  1  0
 30 31  1  0
 30 32  1  0
 30 35  1  0
 32 33  1  0
 32 34  1  0
M  END
$$$$

     RDKit          3D

 42 45  0  0  0  0  0  0  0  0999 V2000
    5.7041    2.2440    0.1551 C   0  0  0  0  0  0  0  0  0  0  0  0
    4.3319    2.1204    0.5899 N   0  0  0  0  0  0  0  0  0  0  0  0
    3.4057    2.5814   -0.4356 C   0  0  0  0  0  0  0  0  0  0  0  0
    2.0015    2.0622   -0.1765 C   0  0  0  0  0  0  0  0  0  0  0  0
    1.9795    0.6135   -0.2809 N   0  0  0  0  0  0  0  0  0  0  0  0
    0.7656    0.0094   -0.2165 C   0  0  0  0  0  0  0  0  0  0  0  0
   -0.2576    0.7803   -0.1185 N   0  0  0  0  0  0  0  0  0  0  0  0
   -1.5527    0.3914    0.0851 C   0  0  0  0  0  0  0  0  0  0  0  0
   -2.5509    1.2503   -0.3785 C   0  0  0  0  0  0  0  0  0  0  0  0
   -3.8760    1.0282   -0.0604 C   0  0  0  0  0  0  0  0  0  0  0  0
   -4.2496   -0.0326    0.7442 C   0  0  0  0  0  0  0  0  0  0  0  0
   -3.2673   -0.8987    1.1961 C   0  0  0  0  0  0  0  0  0  0  0  0
   -1.9329   -0.7159    0.8711 C   0  0  0  0  0  0  0  0  0  0  0  0
   -0.9736   -1.6333    1.3562 N   0  0  0  0  0  0  0  0  0  0  0  0
   -0.1015   -2.2384    0.4482 C   0  0  0  0  0  0  0  0  0  0  0  0
   -0.0221   -3.6276    0.3748 C   0  0  0  0  0  0  0  0  0  0  0  0
    0.8044   -4.2421   -0.5463 C   0  0  0  0  0  0  0  0  0  0  0  0
    1.5459   -3.4766   -1.4301 C   0  0  0  0  0  0  0  0  0  0  0  0
    1.5120   -2.0972   -1.3316 C   0  0  0  0  0  0  0  0  0  0  0  0
    0.7270   -1.4642   -0.3746 C   0  0  0  0  0  0  0  0  0  0  0  0
    2.0992   -1.4949   -2.0084 H   0  0  0  0  0  0  0  0  0  0  0  0
    2.1592   -3.9507   -2.1809 H   0  0  0  0  0  0  0  0  0  0  0  0
    0.8513   -5.3201   -0.5883 H   0  0  0  0  0  0  0  0  0  0  0  0
   -0.6243   -4.2253    1.0454 H   0  0  0  0  0  0  0  0  0  0  0  0
   -1.4025   -2.3116    1.9774 H   0  0  0  0  0  0  0  0  0  0  0  0
   -3.5498   -1.7376    1.8182 H   0  0  0  0  0  0  0  0  0  0  0  0
   -5.2830   -0.1868    1.0089 H   0  0  0  0  0  0  0  0  0  0  0  0
   -5.0866    2.1117   -0.6605 Cl  0  0  0  0  0  0  0  0  0  0  0  0
   -2.2597    2.0958   -0.9801 H   0  0  0  0  0  0  0  0  0  0  0  0
    3.2299   -0.0416    0.0387 C   0  0  0  0  0  0  0  0  0  0  0  0
    3.8525   -0.1383   -0.8609 H   0  0  0  0  0  0  0  0  0  0  0  0
    3.9780    0.7970    1.0819 C   0  0  0  0  0  0  0  0  0  0  0  0
    3.3328    0.9163    1.9602 H   0  0  0  0  0  0  0  0  0  0  0  0
    4.8808    0.2717    1.3974 H   0  0  0  0  0  0  0  0  0  0  0  0
    3.0400   -1.0421    0.4306 H   0  0  0  0  0  0  0  0  0  0  0  0
    1.2999    2.4596   -0.9134 H   0  0  0  0  0  0  0  0  0  0  0  0
    1.6551    2.3827    0.8129 H   0  0  0  0  0  0  0  0  0  0  0  0
    3.3995    3.6754   -0.4197 H   0  0  0  0  0  0  0  0  0  0  0  0
    3.7247    2.2622   -1.4433 H   0  0  0  0  0  0  0  0  0  0  0  0
    5.8892    3.2822   -0.1178 H   0  0  0  0  0  0  0  0  0  0  0  0
    5.9468    1.6105   -0.7135 H   0  0  0  0  0  0  0  0  0  0  0  0
    6.3667    1.9817    0.9781 H   0  0  0  0  0  0  0  0  0  0  0  0
  1  2  1  0
  1 40  1  0
  1 41  1  0
  1 42  1  0
  2  3  1  0
  2 32  1  0
  3  4  1  0
  3 38  1  0
  3 39  1  0
  4  5  1  0
  4 36  1  0
  4 37  1  0
  5  6  1  0
  5 30  1  0
  6  7  2  0
  6 20  1  0
  7  8  1  0
  8  9  1  0
  8 13  2  0
  9 10  2  0
  9 29  1  0
 10 11  1  0
 10 28  1  0
 11 12  2  0
 11 27  1  0
 12 13  1  0
 12 26  1  0
 13 14  1  0
 14 15  1  0
 14 25  1  0
 15 16  1  0
 15 20  2  0
 16 17  2  0
 16 24  1  0
 17 18  1  0
 17 23  1  0
 18 19  2  0
 18 22  1  0
 19 20  1  0
 19 21  1  0
 30 31  1  0
 30 32  1  0
 30 35  1  0
 32 33  1  0
 32 34  1  0
M  END
$$$$

     RDKit          3D

 42 45  0  0  0  0  0  0  0  0999 V2000
    1.8512    2.4192    1.8699 C   0  0  0  0  0  0  0  0  0  0  0  0
    3.0404    2.4707    1.0408 N   0  0  0  0  0  0  0  0  0  0  0  0
    2.8335    3.1419   -0.2229 C   0  0  0  0  0  0  0  0  0  0  0  0
    1.9071    2.3516   -1.1730 C   0  0  0  0  0  0  0  0  0  0  0  0
    2.0623    0.9210   -0.9666 N   0  0  0  0  0  0  0  0  0  0  0  0
    0.9710    0.1742   -0.6492 C   0  0  0  0  0  0  0  0  0  0  0  0
   -0.1715    0.7607   -0.5915 N   0  0  0  0  0  0  0  0  0  0  0  0
   -1.3398    0.2178   -0.1311 C   0  0  0  0  0  0  0  0  0  0  0  0
   -2.5283    0.7536   -0.6296 C   0  0  0  0  0  0  0  0  0  0  0  0
   -3.7446    0.3954   -0.0833 C   0  0  0  0  0  0  0  0  0  0  0  0
   -3.8181   -0.4795    0.9854 C   0  0  0  0  0  0  0  0  0  0  0  0
   -2.6443   -1.0267    1.4765 C   0  0  0  0  0  0  0  0  0  0  0  0
   -1.4115   -0.7066    0.9313 C   0  0  0  0  0  0  0  0  0  0  0  0
   -0.2408   -1.2949    1.4645 N   0  0  0  0  0  0  0  0  0  0  0  0
    0.6044   -1.9695    0.5745 C   0  0  0  0  0  0  0  0  0  0  0  0
    0.9038   -3.3165    0.7626 C   0  0  0  0  0  0  0  0  0  0  0  0
    1.6938   -3.9961   -0.1450 C   0  0  0  0  0  0  0  0  0  0  0  0
    2.1712   -3.3472   -1.2716 C   0  0  0  0  0  0  0  0  0  0  0  0
    1.9190   -1.9977   -1.4415 C   0  0  0  0  0  0  0  0  0  0  0  0
    1.1748   -1.2877   -0.5057 C   0  0  0  0  0  0  0  0  0  0  0  0
    2.3000   -1.4797   -2.3099 H   0  0  0  0  0  0  0  0  0  0  0  0
    2.7497   -3.8856   -2.0065 H   0  0  0  0  0  0  0  0  0  0  0  0
    1.9166   -5.0403    0.0157 H   0  0  0  0  0  0  0  0  0  0  0  0
    0.5034   -3.8308    1.6255 H   0  0  0  0  0  0  0  0  0  0  0  0
   -0.4594   -1.8599    2.2790 H   0  0  0  0  0  0  0  0  0  0  0  0
   -2.6914   -1.7202    2.3056 H   0  0  0  0  0  0  0  0  0  0  0  0
   -4.7692   -0.7364    1.4226 H   0  0  0  0  0  0  0  0  0  0  0  0
   -5.2003    1.0725   -0.7331 Cl  0  0  0  0  0  0  0  0  0  0  0  0
   -2.4718    1.4586   -1.4431 H   0  0  0  0  0  0  0  0  0  0  0  0
    3.3977    0.5655   -0.5488 C   0  0  0  0  0  0  0  0  0  0  0  0
    4.0949    0.9549   -1.2973 H   0  0  0  0  0  0  0  0  0  0  0  0
    3.6957    1.1873    0.8372 C   0  0  0  0  0  0  0  0  0  0  0  0
    3.3759    0.5002    1.6225 H   0  0  0  0  0  0  0  0  0  0  0  0
    4.7792    1.3324    0.9319 H   0  0  0  0  0  0  0  0  0  0  0  0
    3.5164   -0.5149   -0.4942 H   0  0  0  0  0  0  0  0  0  0  0  0
    2.1520    2.5866   -2.2154 H   0  0  0  0  0  0  0  0  0  0  0  0
    0.8599    2.5942   -0.9925 H   0  0  0  0  0  0  0  0  0  0  0  0
    2.4087    4.1288   -0.0329 H   0  0  0  0  0  0  0  0  0  0  0  0
    3.8179    3.2815   -0.6794 H   0  0  0  0  0  0  0  0  0  0  0  0
    2.1227    2.0070    2.8412 H   0  0  0  0  0  0  0  0  0  0  0  0
    1.0289    1.8257    1.4528 H   0  0  0  0  0  0  0  0  0  0  0  0
    1.4977    3.4386    2.0201 H   0  0  0  0  0  0  0  0  0  0  0  0
  1  2  1  0
  1 40  1  0
  1 41  1  0
  1 42  1  0
  2  3  1  0
  2 32  1  0
  3  4  1  0
  3 38  1  0
  3 39  1  0
  4  5  1  0
  4 36  1  0
  4 37  1  0
  5  6  1  0
  5 30  1  0
  6  7  2  0
  6 20  1  0
  7  8  1  0
  8  9  1  0
  8 13  2  0
  9 10  2  0
  9 29  1  0
 10 11  1  0
 10 28  1  0
 11 12  2  0
 11 27  1  0
 12 13  1  0
 12 26  1  0
 13 14  1  0
 14 15  1  0
 14 25  1  0
 15 16  1  0
 15 20  2  0
 16 17  2  0
 16 24  1  0
 17 18  1  0
 17 23  1  0
 18 19  2  0
 18 22  1  0
 19 20  1  0
 19 21  1  0
 30 31  1  0
 30 32  1  0
 30 35  1  0
 32 33  1  0
 32 34  1  0
M  END
$$$$

     RDKit          3D

 42 45  0  0  0  0  0  0  0  0999 V2000
   -3.5611   -2.2524   -1.6236 C   0  0  0  0  0  0  0  0  0  0  0  0
   -4.0980   -2.1622   -0.2802 N   0  0  0  0  0  0  0  0  0  0  0  0
   -4.3886   -0.8053    0.1560 C   0  0  0  0  0  0  0  0  0  0  0  0
   -3.2337   -0.1879    0.9778 C   0  0  0  0  0  0  0  0  0  0  0  0
   -1.9846   -0.7855    0.5755 N   0  0  0  0  0  0  0  0  0  0  0  0
   -0.8394   -0.1118    0.3029 C   0  0  0  0  0  0  0  0  0  0  0  0
    0.2535   -0.7863    0.3525 N   0  0  0  0  0  0  0  0  0  0  0  0
    1.5218   -0.2860    0.2502 C   0  0  0  0  0  0  0  0  0  0  0  0
    2.5094   -1.1557   -0.2162 C   0  0  0  0  0  0  0  0  0  0  0  0
    3.8415   -0.7947   -0.1791 C   0  0  0  0  0  0  0  0  0  0  0  0
    4.2374    0.4236    0.3415 C   0  0  0  0  0  0  0  0  0  0  0  0
    3.2629    1.2990    0.7924 C   0  0  0  0  0  0  0  0  0  0  0  0
    1.9167    0.9748    0.7437 C   0  0  0  0  0  0  0  0  0  0  0  0
    0.9655    1.9086    1.2136 N   0  0  0  0  0  0  0  0  0  0  0  0
   -0.0900    2.2701    0.3731 C   0  0  0  0  0  0  0  0  0  0  0  0
   -0.3065    3.6089    0.0536 C   0  0  0  0  0  0  0  0  0  0  0  0
   -1.3165    3.9747   -0.8156 C   0  0  0  0  0  0  0  0  0  0  0  0
   -2.1078    3.0040   -1.4058 C   0  0  0  0  0  0  0  0  0  0  0  0
   -1.9328    1.6768   -1.0565 C   0  0  0  0  0  0  0  0  0  0  0  0
   -0.9608    1.2989   -0.1368 C   0  0  0  0  0  0  0  0  0  0  0  0
   -2.5546    0.9168   -1.5061 H   0  0  0  0  0  0  0  0  0  0  0  0
   -2.8670    3.2794   -2.1216 H   0  0  0  0  0  0  0  0  0  0  0  0
   -1.4688    5.0175   -1.0510 H   0  0  0  0  0  0  0  0  0  0  0  0
    0.3336    4.3641    0.4889 H   0  0  0  0  0  0  0  0  0  0  0  0
    1.4225    2.7197    1.6176 H   0  0  0  0  0  0  0  0  0  0  0  0
    3.5609    2.2590    1.1927 H   0  0  0  0  0  0  0  0  0  0  0  0
    5.2806    0.6901    0.3897 H   0  0  0  0  0  0  0  0  0  0  0  0
    5.0373   -1.8981   -0.7731 Cl  0  0  0  0  0  0  0  0  0  0  0  0
    2.2075   -2.1190   -0.5939 H   0  0  0  0  0  0  0  0  0  0  0  0
   -1.8950   -2.1998    0.8805 C   0  0  0  0  0  0  0  0  0  0  0  0
   -1.5201   -2.3554    1.9001 H   0  0  0  0  0  0  0  0  0  0  0  0
   -3.2874   -2.8411    0.7083 C   0  0  0  0  0  0  0  0  0  0  0  0
   -3.1772   -3.8868    0.4161 H   0  0  0  0  0  0  0  0  0  0  0  0
   -3.8399   -2.8123    1.6513 H   0  0  0  0  0  0  0  0  0  0  0  0
   -1.1668   -2.6336    0.1931 H   0  0  0  0  0  0  0  0  0  0  0  0
   -3.3895   -0.3992    2.0452 H   0  0  0  0  0  0  0  0  0  0  0  0
   -3.2008    0.8931    0.8509 H   0  0  0  0  0  0  0  0  0  0  0  0
   -4.6041   -0.1947   -0.7218 H   0  0  0  0  0  0  0  0  0  0  0  0
   -5.2922   -0.8313    0.7760 H   0  0  0  0  0  0  0  0  0  0  0  0
   -2.6100   -1.7233   -1.7654 H   0  0  0  0  0  0  0  0  0  0  0  0
   -4.2954   -1.8469   -2.3195 H   0  0  0  0  0  0  0  0  0  0  0  0
   -3.4104   -3.3039   -1.8635 H   0  0  0  0  0  0  0  0  0  0  0  0
  1  2  1  0
  1 40  1  0
  1 41  1  0
  1 42  1  0
  2  3  1  0
  2 32  1  0
  3  4  1  0
  3 38  1  0
  3 39  1  0
  4  5  1  0
  4 36  1  0
  4 37  1  0
  5  6  1  0
  5 30  1  0
  6  7  2  0
  6 20  1  0
  7  8  1  0
  8  9  1  0
  8 13  2  0
  9 10  2  0
  9 29  1  0
 10 11  1  0
 10 28  1  0
 11 12  2  0
 11 27  1  0
 12 13  1  0
 12 26  1  0
 13 14  1  0
 14 15  1  0
 14 25  1  0
 15 16  1  0
 15 20  2  0
 16 17  2  0
 16 24  1  0
 17 18  1  0
 17 23  1  0
 18 19  2  0
 18 22  1  0
 19 20  1  0
 19 21  1  0
 30 31  1  0
 30 32  1  0
 30 35  1  0
 32 33  1  0
 32 34  1  0
M  END
$$$$

     RDKit          3D

 42 45  0  0  0  0  0  0  0  0999 V2000
   -3.4007   -2.9432   -2.0293 C   0  0  0  0  0  0  0  0  0  0  0  0
   -2.9255   -2.1640   -0.9128 N   0  0  0  0  0  0  0  0  0  0  0  0
   -3.9808   -1.5388   -0.1453 C   0  0  0  0  0  0  0  0  0  0  0  0
   -3.3602   -0.4210    0.7181 C   0  0  0  0  0  0  0  0  0  0  0  0
   -2.0049   -0.7725    1.0878 N   0  0  0  0  0  0  0  0  0  0  0  0
   -0.9165   -0.0693    0.6644 C   0  0  0  0  0  0  0  0  0  0  0  0
    0.2003   -0.6961    0.5923 N   0  0  0  0  0  0  0  0  0  0  0  0
    1.3844   -0.2105    0.1117 C   0  0  0  0  0  0  0  0  0  0  0  0
    2.5523   -0.7962    0.6035 C   0  0  0  0  0  0  0  0  0  0  0  0
    3.7799   -0.4990    0.0453 C   0  0  0  0  0  0  0  0  0  0  0  0
    3.8851    0.3635   -1.0303 C   0  0  0  0  0  0  0  0  0  0  0  0
    2.7329    0.9615   -1.5146 C   0  0  0  0  0  0  0  0  0  0  0  0
    1.4909    0.7045   -0.9561 C   0  0  0  0  0  0  0  0  0  0  0  0
    0.3519    1.3485   -1.4844 N   0  0  0  0  0  0  0  0  0  0  0  0
   -0.5019    2.0364   -0.6202 C   0  0  0  0  0  0  0  0  0  0  0  0
   -0.7975    3.3780   -0.8550 C   0  0  0  0  0  0  0  0  0  0  0  0
   -1.6059    4.0881    0.0119 C   0  0  0  0  0  0  0  0  0  0  0  0
   -2.1131    3.4747    1.1449 C   0  0  0  0  0  0  0  0  0  0  0  0
   -1.8673    2.1304    1.3598 C   0  0  0  0  0  0  0  0  0  0  0  0
   -1.0976    1.3890    0.4700 C   0  0  0  0  0  0  0  0  0  0  0  0
   -2.2750    1.6396    2.2309 H   0  0  0  0  0  0  0  0  0  0  0  0
   -2.7101    4.0350    1.8479 H   0  0  0  0  0  0  0  0  0  0  0  0
   -1.8218    5.1272   -0.1872 H   0  0  0  0  0  0  0  0  0  0  0  0
   -0.3787    3.8648   -1.7252 H   0  0  0  0  0  0  0  0  0  0  0  0
    0.5907    1.9007   -2.3015 H   0  0  0  0  0  0  0  0  0  0  0  0
    2.8056    1.6465   -2.3489 H   0  0  0  0  0  0  0  0  0  0  0  0
    4.8430    0.5726   -1.4779 H   0  0  0  0  0  0  0  0  0  0  0  0
    5.2076   -1.2395    0.6890 Cl  0  0  0  0  0  0  0  0  0  0  0  0
    2.4713   -1.4929    1.4220 H   0  0  0  0  0  0  0  0  0  0  0  0
   -1.8503   -2.1962    1.2819 C   0  0  0  0  0  0  0  0  0  0  0  0
   -2.6039   -2.5115    2.0093 H   0  0  0  0  0  0  0  0  0  0  0  0
   -2.0373   -2.9315   -0.0526 C   0  0  0  0  0  0  0  0  0  0  0  0
   -1.0771   -3.0195   -0.5665 H   0  0  0  0  0  0  0  0  0  0  0  0
   -2.4292   -3.9462    0.1393 H   0  0  0  0  0  0  0  0  0  0  0  0
   -0.8561   -2.3845    1.6830 H   0  0  0  0  0  0  0  0  0  0  0  0
   -3.9651   -0.2771    1.6225 H   0  0  0  0  0  0  0  0  0  0  0  0
   -3.3491    0.5122    0.1554 H   0  0  0  0  0  0  0  0  0  0  0  0
   -4.7063   -1.0999   -0.8326 H   0  0  0  0  0  0  0  0  0  0  0  0
   -4.5188   -2.2667    0.4890 H   0  0  0  0  0  0  0  0  0  0  0  0
   -3.9818   -2.3042   -2.6927 H   0  0  0  0  0  0  0  0  0  0  0  0
   -4.0269   -3.7971   -1.7221 H   0  0  0  0  0  0  0  0  0  0  0  0
   -2.5416   -3.3257   -2.5787 H   0  0  0  0  0  0  0  0  0  0  0  0
  1  2  1  0
  1 40  1  0
  1 41  1  0
  1 42  1  0
  2  3  1  0
  2 32  1  0
  3  4  1  0
  3 38  1  0
  3 39  1  0
  4  5  1  0
  4 36  1  0
  4 37  1  0
  5  6  1  0
  5 30  1  0
  6  7  2  0
  6 20  1  0
  7  8  1  0
  8  9  1  0
  8 13  2  0
  9 10  2  0
  9 29  1  0
 10 11  1  0
 10 28  1  0
 11 12  2  0
 11 27  1  0
 12 13  1  0
 12 26  1  0
 13 14  1  0
 14 15  1  0
 14 25  1  0
 15 16  1  0
 15 20  2  0
 16 17  2  0
 16 24  1  0
 17 18  1  0
 17 23  1  0
 18 19  2  0
 18 22  1  0
 19 20  1  0
 19 21  1  0
 30 31  1  0
 30 32  1  0
 30 35  1  0
 32 33  1  0
 32 34  1  0
M  END
$$$$

     RDKit          3D

 42 45  0  0  0  0  0  0  0  0999 V2000
   -5.2735   -2.5016   -0.8953 C   0  0  0  0  0  0  0  0  0  0  0  0
   -4.0778   -1.8620   -0.4017 N   0  0  0  0  0  0  0  0  0  0  0  0
   -3.3741   -2.6378    0.6002 C   0  0  0  0  0  0  0  0  0  0  0  0
   -1.9466   -2.0943    0.7267 C   0  0  0  0  0  0  0  0  0  0  0  0
   -1.9499   -0.6653    0.4971 N   0  0  0  0  0  0  0  0  0  0  0  0
   -0.7676   -0.0524    0.2483 C   0  0  0  0  0  0  0  0  0  0  0  0
    0.2868   -0.7859    0.2957 N   0  0  0  0  0  0  0  0  0  0  0  0
    1.5811   -0.3518    0.2168 C   0  0  0  0  0  0  0  0  0  0  0  0
    2.5256   -1.2645   -0.2571 C   0  0  0  0  0  0  0  0  0  0  0  0
    3.8749   -0.9780   -0.1997 C   0  0  0  0  0  0  0  0  0  0  0  0
    4.3313    0.2064    0.3490 C   0  0  0  0  0  0  0  0  0  0  0  0
    3.4008    1.1248    0.8072 C   0  0  0  0  0  0  0  0  0  0  0  0
    2.0394    0.8759    0.7391 C   0  0  0  0  0  0  0  0  0  0  0  0
    1.1370    1.8522    1.2189 N   0  0  0  0  0  0  0  0  0  0  0  0
    0.1099    2.2860    0.3767 C   0  0  0  0  0  0  0  0  0  0  0  0
   -0.0308    3.6399    0.0793 C   0  0  0  0  0  0  0  0  0  0  0  0
   -1.0131    4.0744   -0.7903 C   0  0  0  0  0  0  0  0  0  0  0  0
   -1.8517    3.1582   -1.4025 C   0  0  0  0  0  0  0  0  0  0  0  0
   -1.7513    1.8174   -1.0765 C   0  0  0  0  0  0  0  0  0  0  0  0
   -0.8078    1.3731   -0.1569 C   0  0  0  0  0  0  0  0  0  0  0  0
   -2.4060    1.0948   -1.5404 H   0  0  0  0  0  0  0  0  0  0  0  0
   -2.5890    3.4877   -2.1185 H   0  0  0  0  0  0  0  0  0  0  0  0
   -1.1065    5.1279   -1.0087 H   0  0  0  0  0  0  0  0  0  0  0  0
    0.6458    4.3521    0.5316 H   0  0  0  0  0  0  0  0  0  0  0  0
    1.6350    2.6299    1.6399 H   0  0  0  0  0  0  0  0  0  0  0  0
    3.7465    2.0593    1.2290 H   0  0  0  0  0  0  0  0  0  0  0  0
    5.3869    0.4144    0.4127 H   0  0  0  0  0  0  0  0  0  0  0  0
    5.0153   -2.1335   -0.8035 Cl  0  0  0  0  0  0  0  0  0  0  0  0
    2.1749   -2.2018   -0.6574 H   0  0  0  0  0  0  0  0  0  0  0  0
   -3.1609   -0.0126    0.9174 C   0  0  0  0  0  0  0  0  0  0  0  0
   -3.0636    1.0692    0.8351 H   0  0  0  0  0  0  0  0  0  0  0  0
   -4.3439   -0.5164    0.0766 C   0  0  0  0  0  0  0  0  0  0  0  0
   -5.2625   -0.4727    0.6901 H   0  0  0  0  0  0  0  0  0  0  0  0
   -4.4962    0.1220   -0.7991 H   0  0  0  0  0  0  0  0  0  0  0  0
   -3.3356   -0.2545    1.9759 H   0  0  0  0  0  0  0  0  0  0  0  0
   -1.2931   -2.5355   -0.0277 H   0  0  0  0  0  0  0  0  0  0  0  0
   -1.5268   -2.3314    1.7128 H   0  0  0  0  0  0  0  0  0  0  0  0
   -3.8920   -2.6134    1.5760 H   0  0  0  0  0  0  0  0  0  0  0  0
   -3.3332   -3.6784    0.2749 H   0  0  0  0  0  0  0  0  0  0  0  0
   -5.7069   -1.8811   -1.6788 H   0  0  0  0  0  0  0  0  0  0  0  0
   -6.0338   -2.6543   -0.1118 H   0  0  0  0  0  0  0  0  0  0  0  0
   -5.0122   -3.4681   -1.3227 H   0  0  0  0  0  0  0  0  0  0  0  0
  1  2  1  0
  1 40  1  0
  1 41  1  0
  1 42  1  0
  2  3  1  0
  2 32  1  0
  3  4  1  0
  3 38  1  0
  3 39  1  0
  4  5  1  0
  4 36  1  0
  4 37  1  0
  5  6  1  0
  5 30  1  0
  6  7  2  0
  6 20  1  0
  7  8  1  0
  8  9  1  0
  8 13  2  0
  9 10  2  0
  9 29  1  0
 10 11  1  0
 10 28  1  0
 11 12  2  0
 11 27  1  0
 12 13  1  0
 12 26  1  0
 13 14  1  0
 14 15  1  0
 14 25  1  0
 15 16  1  0
 15 20  2  0
 16 17  2  0
 16 24  1  0
 17 18  1  0
 17 23  1  0
 18 19  2  0
 18 22  1  0
 19 20  1  0
 19 21  1  0
 30 31  1  0
 30 32  1  0
 30 35  1  0
 32 33  1  0
 32 34  1  0
M  END
$$$$
