
     RDKit          3D

 29 30  0  0  0  0  0  0  0  0999 V2000
    6.0331    0.0724   -0.3488 C   0  0  0  0  0  0  0  0  0  0  0  0
    6.0803    0.9438    0.3116 H   0  0  0  0  0  0  0  0  0  0  0  0
    5.0133   -0.8169    0.0419 O   0  0  0  0  0  0  0  0  0  0  0  0
    3.7301   -0.3792    0.0421 C   0  0  0  0  0  0  0  0  0  0  0  0
    3.3194    0.8996   -0.3256 C   0  0  0  0  0  0  0  0  0  0  0  0
    1.9785    1.2268   -0.2824 C   0  0  0  0  0  0  0  0  0  0  0  0
    1.0169    0.2986    0.1044 C   0  0  0  0  0  0  0  0  0  0  0  0
    1.4353   -0.9769    0.4857 C   0  0  0  0  0  0  0  0  0  0  0  0
    2.7710   -1.3080    0.4575 C   0  0  0  0  0  0  0  0  0  0  0  0
    3.1081   -2.2874    0.7581 H   0  0  0  0  0  0  0  0  0  0  0  0
    0.7268   -1.7109    0.8416 H   0  0  0  0  0  0  0  0  0  0  0  0
   -0.4009    0.7473    0.1265 C   0  0  0  0  0  0  0  0  0  0  0  0
   -0.7074    1.9142    0.2633 O   0  0  0  0  0  0  0  0  0  0  0  0
   -1.3109   -0.2632   -0.0403 N   0  0  0  0  0  0  0  0  0  0  0  0
   -2.6966   -0.2006   -0.0520 C   0  0  0  0  0  0  0  0  0  0  0  0
   -3.2671   -1.3805   -0.2838 N   0  0  0  0  0  0  0  0  0  0  0  0
   -4.5863   -1.4464   -0.3133 C   0  0  0  0  0  0  0  0  0  0  0  0
   -5.4078   -0.3500   -0.1145 C   0  0  0  0  0  0  0  0  0  0  0  0
   -4.8068    0.8781    0.1280 C   0  0  0  0  0  0  0  0  0  0  0  0
   -3.4284    0.9678    0.1626 C   0  0  0  0  0  0  0  0  0  0  0  0
   -2.9207    1.8990    0.3454 H   0  0  0  0  0  0  0  0  0  0  0  0
   -5.4089    1.7604    0.2891 H   0  0  0  0  0  0  0  0  0  0  0  0
   -6.4808   -0.4515   -0.1480 H   0  0  0  0  0  0  0  0  0  0  0  0
   -4.9944   -2.4301   -0.5060 H   0  0  0  0  0  0  0  0  0  0  0  0
   -0.9679   -1.1973   -0.2216 H   0  0  0  0  0  0  0  0  0  0  0  0
    1.6520    2.2189   -0.5556 H   0  0  0  0  0  0  0  0  0  0  0  0
    4.0326    1.6445   -0.6408 H   0  0  0  0  0  0  0  0  0  0  0  0
    6.9612   -0.4911   -0.2678 H   0  0  0  0  0  0  0  0  0  0  0  0
    5.9011    0.4049   -1.3831 H   0  0  0  0  0  0  0  0  0  0  0  0
  1  2  1  0
  1  3  1  0
  1 28  1  0
  1 29  1  0
  3  4  1  0
  4  5  2  0
  4  9  1  0
  5  6  1  0
  5 27  1  0
  6  7  2  0
  6 26  1  0
  7  8  1  0
  7 12  1  0
  8  9  2  0
  8 11  1  0
  9 10  1  0
 12 13  2  0
 12 14  1  0
 14 15  1  0
 14 25  1  0
 15 16  2  0
 15 20  1  0
 16 17  1  0
 17 18  2  0
 17 24  1  0
 18 19  1  0
 18 23  1  0
 19 20  2  0
 19 22  1  0
 20 21  1  0
M  END
$$$$

     RDKit          3D

 29 30  0  0  0  0  0  0  0  0999 V2000
   -5.6838   -1.4129    0.1581 C   0  0  0  0  0  0  0  0  0  0  0  0
   -6.7532   -1.2969   -0.0100 H   0  0  0  0  0  0  0  0  0  0  0  0
   -5.1086   -0.1746   -0.1858 O   0  0  0  0  0  0  0  0  0  0  0  0
   -3.7656   -0.0237   -0.0798 C   0  0  0  0  0  0  0  0  0  0  0  0
   -3.2623    1.2324   -0.4323 C   0  0  0  0  0  0  0  0  0  0  0  0
   -1.9134    1.4854   -0.3592 C   0  0  0  0  0  0  0  0  0  0  0  0
   -1.0194    0.4928    0.0471 C   0  0  0  0  0  0  0  0  0  0  0  0
   -1.5249   -0.7500    0.4116 C   0  0  0  0  0  0  0  0  0  0  0  0
   -2.8826   -1.0094    0.3537 C   0  0  0  0  0  0  0  0  0  0  0  0
   -3.2409   -1.9815    0.6539 H   0  0  0  0  0  0  0  0  0  0  0  0
   -0.8712   -1.5274    0.7812 H   0  0  0  0  0  0  0  0  0  0  0  0
    0.4236    0.8477    0.1087 C   0  0  0  0  0  0  0  0  0  0  0  0
    0.8026    1.9881    0.2799 O   0  0  0  0  0  0  0  0  0  0  0  0
    1.2692   -0.2171   -0.0632 N   0  0  0  0  0  0  0  0  0  0  0  0
    2.6560   -0.2463   -0.0450 C   0  0  0  0  0  0  0  0  0  0  0  0
    3.1525   -1.4566   -0.2900 N   0  0  0  0  0  0  0  0  0  0  0  0
    4.4649   -1.6089   -0.2938 C   0  0  0  0  0  0  0  0  0  0  0  0
    5.3520   -0.5735   -0.0551 C   0  0  0  0  0  0  0  0  0  0  0  0
    4.8279    0.6866    0.2012 C   0  0  0  0  0  0  0  0  0  0  0  0
    3.4580    0.8667    0.2095 C   0  0  0  0  0  0  0  0  0  0  0  0
    3.0086    1.8256    0.4015 H   0  0  0  0  0  0  0  0  0  0  0  0
    5.4831    1.5238    0.3933 H   0  0  0  0  0  0  0  0  0  0  0  0
    6.4166   -0.7451   -0.0687 H   0  0  0  0  0  0  0  0  0  0  0  0
    4.8116   -2.6135   -0.4991 H   0  0  0  0  0  0  0  0  0  0  0  0
    0.8698   -1.1219   -0.2746 H   0  0  0  0  0  0  0  0  0  0  0  0
   -1.5194    2.4560   -0.6188 H   0  0  0  0  0  0  0  0  0  0  0  0
   -3.9585    1.9900   -0.7550 H   0  0  0  0  0  0  0  0  0  0  0  0
   -5.3043   -2.2217   -0.4744 H   0  0  0  0  0  0  0  0  0  0  0  0
   -5.5083   -1.6590    1.2101 H   0  0  0  0  0  0  0  0  0  0  0  0
  1  2  1  0
  1  3  1  0
  1 28  1  0
  1 29  1  0
  3  4  1  0
  4  5  2  0
  4  9  1  0
  5  6  1  0
  5 27  1  0
  6  7  2  0
  6 26  1  0
  7  8  1  0
  7 12  1  0
  8  9  2  0
  8 11  1  0
  9 10  1  0
 12 13  2  0
 12 14  1  0
 14 15  1  0
 14 25  1  0
 15 16  2  0
 15 20  1  0
 16 17  1  0
 17 18  2  0
 17 24  1  0
 18 19  1  0
 18 23  1  0
 19 20  2  0
 19 22  1  0
 20 21  1  0
M  END
$$$$

     RDKit          3D

 29 30  0  0  0  0  0  0  0  0999 V2000
   -5.7225   -1.3954   -0.0107 C   0  0  0  0  0  0  0  0  0  0  0  0
   -5.4391   -1.9599   -0.9045 H   0  0  0  0  0  0  0  0  0  0  0  0
   -5.1425   -0.1123   -0.0045 O   0  0  0  0  0  0  0  0  0  0  0  0
   -3.7921   -0.0031   -0.0007 C   0  0  0  0  0  0  0  0  0  0  0  0
   -3.2817    1.2986    0.0018 C   0  0  0  0  0  0  0  0  0  0  0  0
   -1.9248    1.5097    0.0047 C   0  0  0  0  0  0  0  0  0  0  0  0
   -1.0221    0.4412    0.0054 C   0  0  0  0  0  0  0  0  0  0  0  0
   -1.5376   -0.8511    0.0034 C   0  0  0  0  0  0  0  0  0  0  0  0
   -2.9028   -1.0745    0.0004 C   0  0  0  0  0  0  0  0  0  0  0  0
   -3.2623   -2.0916   -0.0013 H   0  0  0  0  0  0  0  0  0  0  0  0
   -0.8955   -1.7203    0.0034 H   0  0  0  0  0  0  0  0  0  0  0  0
    0.4228    0.7994    0.0059 C   0  0  0  0  0  0  0  0  0  0  0  0
    0.7910    1.9579    0.0014 O   0  0  0  0  0  0  0  0  0  0  0  0
    1.2929   -0.2580    0.0101 N   0  0  0  0  0  0  0  0  0  0  0  0
    2.6797   -0.2506    0.0040 C   0  0  0  0  0  0  0  0  0  0  0  0
    3.2006   -1.4759    0.0082 N   0  0  0  0  0  0  0  0  0  0  0  0
    4.5157   -1.6009    0.0018 C   0  0  0  0  0  0  0  0  0  0  0  0
    5.3828   -0.5219   -0.0093 C   0  0  0  0  0  0  0  0  0  0  0  0
    4.8339    0.7536   -0.0133 C   0  0  0  0  0  0  0  0  0  0  0  0
    3.4606    0.9056   -0.0065 C   0  0  0  0  0  0  0  0  0  0  0  0
    2.9928    1.8748   -0.0092 H   0  0  0  0  0  0  0  0  0  0  0  0
    5.4727    1.6247   -0.0220 H   0  0  0  0  0  0  0  0  0  0  0  0
    6.4506   -0.6724   -0.0146 H   0  0  0  0  0  0  0  0  0  0  0  0
    4.8819   -2.6195    0.0059 H   0  0  0  0  0  0  0  0  0  0  0  0
    0.9249   -1.1990    0.0166 H   0  0  0  0  0  0  0  0  0  0  0  0
   -1.5228    2.5114    0.0064 H   0  0  0  0  0  0  0  0  0  0  0  0
   -3.9778    2.1220    0.0011 H   0  0  0  0  0  0  0  0  0  0  0  0
   -5.4482   -1.9646    0.8830 H   0  0  0  0  0  0  0  0  0  0  0  0
   -6.7988   -1.2313   -0.0156 H   0  0  0  0  0  0  0  0  0  0  0  0
  1  2  1  0
  1  3  1  0
  1 28  1  0
  1 29  1  0
  3  4  1  0
  4  5  2  0
  4  9  1  0
  5  6  1  0
  5 27  1  0
  6  7  2  0
  6 26  1  0
  7  8  1  0
  7 12  1  0
  8  9  2  0
  8 11  1  0
  9 10  1  0
 12 13  2  0
 12 14  1  0
 14 15  1  0
 14 25  1  0
 15 16  2  0
 15 20  1  0
 16 17  1  0
 17 18  2  0
 17 24  1  0
 18 19  1  0
 18 23  1  0
 19 20  2  0
 19 22  1  0
 20 21  1  0
M  END
$$$$

     RDKit          3D

 29 30  0  0  0  0  0  0  0  0999 V2000
   -5.0047   -1.2386   -0.3699 C   0  0  0  0  0  0  0  0  0  0  0  0
   -5.6940   -2.0186   -0.0509 H   0  0  0  0  0  0  0  0  0  0  0  0
   -3.8579   -1.3938    0.4323 O   0  0  0  0  0  0  0  0  0  0  0  0
   -2.8210   -0.5350    0.2631 C   0  0  0  0  0  0  0  0  0  0  0  0
   -1.7281   -0.7272    1.1145 C   0  0  0  0  0  0  0  0  0  0  0  0
   -0.6162    0.0774    1.0209 C   0  0  0  0  0  0  0  0  0  0  0  0
   -0.5671    1.1001    0.0729 C   0  0  0  0  0  0  0  0  0  0  0  0
   -1.6671    1.3114   -0.7485 C   0  0  0  0  0  0  0  0  0  0  0  0
   -2.7818    0.4966   -0.6707 C   0  0  0  0  0  0  0  0  0  0  0  0
   -3.6125    0.6800   -1.3334 H   0  0  0  0  0  0  0  0  0  0  0  0
   -1.6383    2.1220   -1.4610 H   0  0  0  0  0  0  0  0  0  0  0  0
    0.5824    2.0371    0.0032 C   0  0  0  0  0  0  0  0  0  0  0  0
    0.4399    3.2387   -0.0856 O   0  0  0  0  0  0  0  0  0  0  0  0
    1.8434    1.5027    0.1097 N   0  0  0  0  0  0  0  0  0  0  0  0
    2.3115    0.2090   -0.0527 C   0  0  0  0  0  0  0  0  0  0  0  0
    3.4908   -0.0126    0.5192 N   0  0  0  0  0  0  0  0  0  0  0  0
    4.0371   -1.2100    0.4075 C   0  0  0  0  0  0  0  0  0  0  0  0
    3.4461   -2.2551   -0.2811 C   0  0  0  0  0  0  0  0  0  0  0  0
    2.2307   -2.0131   -0.9080 C   0  0  0  0  0  0  0  0  0  0  0  0
    1.6493   -0.7645   -0.8067 C   0  0  0  0  0  0  0  0  0  0  0  0
    0.7215   -0.5411   -1.3063 H   0  0  0  0  0  0  0  0  0  0  0  0
    1.7454   -2.7888   -1.4820 H   0  0  0  0  0  0  0  0  0  0  0  0
    3.9241   -3.2195   -0.3407 H   0  0  0  0  0  0  0  0  0  0  0  0
    4.9954   -1.3258    0.8963 H   0  0  0  0  0  0  0  0  0  0  0  0
    2.5716    2.1736    0.3304 H   0  0  0  0  0  0  0  0  0  0  0  0
    0.2134   -0.0748    1.6953 H   0  0  0  0  0  0  0  0  0  0  0  0
   -1.7844   -1.5175    1.8461 H   0  0  0  0  0  0  0  0  0  0  0  0
   -5.4708   -0.2601   -0.2187 H   0  0  0  0  0  0  0  0  0  0  0  0
   -4.7736   -1.3727   -1.4315 H   0  0  0  0  0  0  0  0  0  0  0  0
  1  2  1  0
  1  3  1  0
  1 28  1  0
  1 29  1  0
  3  4  1  0
  4  5  2  0
  4  9  1  0
  5  6  1  0
  5 27  1  0
  6  7  2  0
  6 26  1  0
  7  8  1  0
  7 12  1  0
  8  9  2  0
  8 11  1  0
  9 10  1  0
 12 13  2  0
 12 14  1  0
 14 15  1  0
 14 25  1  0
 15 16  2  0
 15 20  1  0
 16 17  1  0
 17 18  2  0
 17 24  1  0
 18 19  1  0
 18 23  1  0
 19 20  2  0
 19 22  1  0
 20 21  1  0
M  END
$$$$

     RDKit          3D

 29 30  0  0  0  0  0  0  0  0999 V2000
   -4.3039   -2.0932    0.6465 C   0  0  0  0  0  0  0  0  0  0  0  0
   -3.5591   -2.8835    0.5086 H   0  0  0  0  0  0  0  0  0  0  0  0
   -4.0552   -0.9949   -0.1983 O   0  0  0  0  0  0  0  0  0  0  0  0
   -2.8896   -0.3137   -0.0609 C   0  0  0  0  0  0  0  0  0  0  0  0
   -2.7189    0.7788   -0.9161 C   0  0  0  0  0  0  0  0  0  0  0  0
   -1.5728    1.5381   -0.8569 C   0  0  0  0  0  0  0  0  0  0  0  0
   -0.5531    1.2092    0.0348 C   0  0  0  0  0  0  0  0  0  0  0  0
   -0.7310    0.1336    0.8974 C   0  0  0  0  0  0  0  0  0  0  0  0
   -1.8877   -0.6226    0.8559 C   0  0  0  0  0  0  0  0  0  0  0  0
   -1.9987   -1.4451    1.5446 H   0  0  0  0  0  0  0  0  0  0  0  0
    0.0333   -0.1099    1.6210 H   0  0  0  0  0  0  0  0  0  0  0  0
    0.6473    2.0784    0.1279 C   0  0  0  0  0  0  0  0  0  0  0  0
    0.5790    3.2891    0.1422 O   0  0  0  0  0  0  0  0  0  0  0  0
    1.8649    1.4572    0.2691 N   0  0  0  0  0  0  0  0  0  0  0  0
    2.2631    0.1539    0.0209 C   0  0  0  0  0  0  0  0  0  0  0  0
    3.3757   -0.2009    0.6559 N   0  0  0  0  0  0  0  0  0  0  0  0
    3.8534   -1.4184    0.4706 C   0  0  0  0  0  0  0  0  0  0  0  0
    3.2564   -2.3524   -0.3582 C   0  0  0  0  0  0  0  0  0  0  0  0
    2.1129   -1.9702   -1.0476 C   0  0  0  0  0  0  0  0  0  0  0  0
    1.6035   -0.6989   -0.8696 C   0  0  0  0  0  0  0  0  0  0  0  0
    0.7349   -0.3665   -1.4131 H   0  0  0  0  0  0  0  0  0  0  0  0
    1.6292   -2.6540   -1.7298 H   0  0  0  0  0  0  0  0  0  0  0  0
    3.6776   -3.3377   -0.4760 H   0  0  0  0  0  0  0  0  0  0  0  0
    4.7597   -1.6450    1.0165 H   0  0  0  0  0  0  0  0  0  0  0  0
    2.6132    2.0563    0.6006 H   0  0  0  0  0  0  0  0  0  0  0  0
   -1.4458    2.3915   -1.5052 H   0  0  0  0  0  0  0  0  0  0  0  0
   -3.5099    1.0125   -1.6108 H   0  0  0  0  0  0  0  0  0  0  0  0
   -4.3268   -1.7934    1.6989 H   0  0  0  0  0  0  0  0  0  0  0  0
   -5.2843   -2.4690    0.3585 H   0  0  0  0  0  0  0  0  0  0  0  0
  1  2  1  0
  1  3  1  0
  1 28  1  0
  1 29  1  0
  3  4  1  0
  4  5  2  0
  4  9  1  0
  5  6  1  0
  5 27  1  0
  6  7  2  0
  6 26  1  0
  7  8  1  0
  7 12  1  0
  8  9  2  0
  8 11  1  0
  9 10  1  0
 12 13  2  0
 12 14  1  0
 14 15  1  0
 14 25  1  0
 15 16  2  0
 15 20  1  0
 16 17  1  0
 17 18  2  0
 17 24  1  0
 18 19  1  0
 18 23  1  0
 19 20  2  0
 19 22  1  0
 20 21  1  0
M  END
$$$$

     RDKit          3D

 29 30  0  0  0  0  0  0  0  0999 V2000
   -4.9000   -1.2410    0.4671 C   0  0  0  0  0  0  0  0  0  0  0  0
   -5.3805   -0.2576    0.4570 H   0  0  0  0  0  0  0  0  0  0  0  0
   -3.8298   -1.3027   -0.4450 O   0  0  0  0  0  0  0  0  0  0  0  0
   -2.7743   -0.4643   -0.2695 C   0  0  0  0  0  0  0  0  0  0  0  0
   -2.6575    0.4689    0.7550 C   0  0  0  0  0  0  0  0  0  0  0  0
   -1.5332    1.2713    0.8293 C   0  0  0  0  0  0  0  0  0  0  0  0
   -0.5010    1.1409   -0.0886 C   0  0  0  0  0  0  0  0  0  0  0  0
   -0.6281    0.2171   -1.1251 C   0  0  0  0  0  0  0  0  0  0  0  0
   -1.7509   -0.5712   -1.2161 C   0  0  0  0  0  0  0  0  0  0  0  0
   -1.8678   -1.2870   -2.0144 H   0  0  0  0  0  0  0  0  0  0  0  0
    0.1491    0.1299   -1.8695 H   0  0  0  0  0  0  0  0  0  0  0  0
    0.6620    2.0520   -0.0069 C   0  0  0  0  0  0  0  0  0  0  0  0
    0.5644    3.2521    0.1387 O   0  0  0  0  0  0  0  0  0  0  0  0
    1.9139    1.4936   -0.1699 N   0  0  0  0  0  0  0  0  0  0  0  0
    2.3240    0.1836    0.0021 C   0  0  0  0  0  0  0  0  0  0  0  0
    1.4645   -0.6870    0.5119 N   0  0  0  0  0  0  0  0  0  0  0  0
    1.8554   -1.9373    0.6779 C   0  0  0  0  0  0  0  0  0  0  0  0
    3.1220   -2.3937    0.3572 C   0  0  0  0  0  0  0  0  0  0  0  0
    4.0308   -1.4782   -0.1589 C   0  0  0  0  0  0  0  0  0  0  0  0
    3.6361   -0.1684   -0.3395 C   0  0  0  0  0  0  0  0  0  0  0  0
    4.3147    0.5717   -0.7362 H   0  0  0  0  0  0  0  0  0  0  0  0
    5.0342   -1.7848   -0.4165 H   0  0  0  0  0  0  0  0  0  0  0  0
    3.3943   -3.4257    0.5089 H   0  0  0  0  0  0  0  0  0  0  0  0
    1.1055   -2.5966    1.0941 H   0  0  0  0  0  0  0  0  0  0  0  0
    2.6551    2.1790   -0.2643 H   0  0  0  0  0  0  0  0  0  0  0  0
   -1.4457    2.0035    1.6176 H   0  0  0  0  0  0  0  0  0  0  0  0
   -3.4337    0.5843    1.4949 H   0  0  0  0  0  0  0  0  0  0  0  0
   -5.6140   -1.9931    0.1346 H   0  0  0  0  0  0  0  0  0  0  0  0
   -4.5745   -1.4769    1.4852 H   0  0  0  0  0  0  0  0  0  0  0  0
  1  2  1  0
  1  3  1  0
  1 28  1  0
  1 29  1  0
  3  4  1  0
  4  5  2  0
  4  9  1  0
  5  6  1  0
  5 27  1  0
  6  7  2  0
  6 26  1  0
  7  8  1  0
  7 12  1  0
  8  9  2  0
  8 11  1  0
  9 10  1  0
 12 13  2  0
 12 14  1  0
 14 15  1  0
 14 25  1  0
 15 16  2  0
 15 20  1  0
 16 17  1  0
 17 18  2  0
 17 24  1  0
 18 19  1  0
 18 23  1  0
 19 20  2  0
 19 22  1  0
 20 21  1  0
M  END
$$$$

     RDKit          3D

 29 30  0  0  0  0  0  0  0  0999 V2000
   -4.3385   -1.9740    0.6540 C   0  0  0  0  0  0  0  0  0  0  0  0
   -5.3006   -2.3661    0.3275 H   0  0  0  0  0  0  0  0  0  0  0  0
   -4.0208   -0.9439   -0.2503 O   0  0  0  0  0  0  0  0  0  0  0  0
   -2.8517   -0.2695   -0.0893 C   0  0  0  0  0  0  0  0  0  0  0  0
   -2.6001    0.7424   -1.0184 C   0  0  0  0  0  0  0  0  0  0  0  0
   -1.4447    1.4864   -0.9424 C   0  0  0  0  0  0  0  0  0  0  0  0
   -0.4981    1.2205    0.0437 C   0  0  0  0  0  0  0  0  0  0  0  0
   -0.7570    0.2260    0.9781 C   0  0  0  0  0  0  0  0  0  0  0  0
   -1.9234   -0.5126    0.9197 C   0  0  0  0  0  0  0  0  0  0  0  0
   -2.0986   -1.2732    1.6643 H   0  0  0  0  0  0  0  0  0  0  0  0
   -0.0500    0.0335    1.7717 H   0  0  0  0  0  0  0  0  0  0  0  0
    0.7096    2.0698    0.1384 C   0  0  0  0  0  0  0  0  0  0  0  0
    0.6809    3.2814    0.0979 O   0  0  0  0  0  0  0  0  0  0  0  0
    1.9179    1.4342    0.3469 N   0  0  0  0  0  0  0  0  0  0  0  0
    2.2882    0.1272    0.0869 C   0  0  0  0  0  0  0  0  0  0  0  0
    1.4305   -0.6634   -0.5424 N   0  0  0  0  0  0  0  0  0  0  0  0
    1.7878   -1.9094   -0.7944 C   0  0  0  0  0  0  0  0  0  0  0  0
    3.0160   -2.4416   -0.4432 C   0  0  0  0  0  0  0  0  0  0  0  0
    3.9229   -1.6099    0.2022 C   0  0  0  0  0  0  0  0  0  0  0  0
    3.5640   -0.3054    0.4722 C   0  0  0  0  0  0  0  0  0  0  0  0
    4.2429    0.3709    0.9693 H   0  0  0  0  0  0  0  0  0  0  0  0
    4.8977   -1.9769    0.4893 H   0  0  0  0  0  0  0  0  0  0  0  0
    3.2616   -3.4666   -0.6694 H   0  0  0  0  0  0  0  0  0  0  0  0
    1.0422   -2.5002   -1.3098 H   0  0  0  0  0  0  0  0  0  0  0  0
    2.6781    2.0722    0.5553 H   0  0  0  0  0  0  0  0  0  0  0  0
   -1.2556    2.2759   -1.6534 H   0  0  0  0  0  0  0  0  0  0  0  0
   -3.3345    0.9254   -1.7866 H   0  0  0  0  0  0  0  0  0  0  0  0
   -3.5939   -2.7761    0.6280 H   0  0  0  0  0  0  0  0  0  0  0  0
   -4.4316   -1.5967    1.6774 H   0  0  0  0  0  0  0  0  0  0  0  0
  1  2  1  0
  1  3  1  0
  1 28  1  0
  1 29  1  0
  3  4  1  0
  4  5  2  0
  4  9  1  0
  5  6  1  0
  5 27  1  0
  6  7  2  0
  6 26  1  0
  7  8  1  0
  7 12  1  0
  8  9  2  0
  8 11  1  0
  9 10  1  0
 12 13  2  0
 12 14  1  0
 14 15  1  0
 14 25  1  0
 15 16  2  0
 15 20  1  0
 16 17  1  0
 17 18  2  0
 17 24  1  0
 18 19  1  0
 18 23  1  0
 19 20  2  0
 19 22  1  0
 20 21  1  0
M  END
$$$$

     RDKit          3D

 29 30  0  0  0  0  0  0  0  0999 V2000
   -4.7824   -1.5540    0.7073 C   0  0  0  0  0  0  0  0  0  0  0  0
   -5.1305   -0.7265    1.3335 H   0  0  0  0  0  0  0  0  0  0  0  0
   -4.0690   -1.0892   -0.4134 O   0  0  0  0  0  0  0  0  0  0  0  0
   -2.9397   -0.3602   -0.2123 C   0  0  0  0  0  0  0  0  0  0  0  0
   -2.4004   -0.0502    1.0321 C   0  0  0  0  0  0  0  0  0  0  0  0
   -1.2393    0.7001    1.1149 C   0  0  0  0  0  0  0  0  0  0  0  0
   -0.5958    1.1405   -0.0323 C   0  0  0  0  0  0  0  0  0  0  0  0
   -1.1447    0.8444   -1.2776 C   0  0  0  0  0  0  0  0  0  0  0  0
   -2.2985    0.0970   -1.3666 C   0  0  0  0  0  0  0  0  0  0  0  0
   -2.7338   -0.1447   -2.3230 H   0  0  0  0  0  0  0  0  0  0  0  0
   -0.6595    1.1991   -2.1744 H   0  0  0  0  0  0  0  0  0  0  0  0
    0.6109    2.0139    0.0714 C   0  0  0  0  0  0  0  0  0  0  0  0
    0.5257    3.2210    0.1384 O   0  0  0  0  0  0  0  0  0  0  0  0
    1.8468    1.4244    0.0957 N   0  0  0  0  0  0  0  0  0  0  0  0
    2.3119    0.1209    0.0409 C   0  0  0  0  0  0  0  0  0  0  0  0
    3.6396    0.0608    0.1342 N   0  0  0  0  0  0  0  0  0  0  0  0
    4.2347   -1.1157    0.0961 C   0  0  0  0  0  0  0  0  0  0  0  0
    3.5475   -2.3106   -0.0376 C   0  0  0  0  0  0  0  0  0  0  0  0
    2.1651   -2.2500   -0.1368 C   0  0  0  0  0  0  0  0  0  0  0  0
    1.5253   -1.0244   -0.0986 C   0  0  0  0  0  0  0  0  0  0  0  0
    0.4545   -0.9648   -0.1776 H   0  0  0  0  0  0  0  0  0  0  0  0
    1.5828   -3.1534   -0.2452 H   0  0  0  0  0  0  0  0  0  0  0  0
    4.0714   -3.2523   -0.0649 H   0  0  0  0  0  0  0  0  0  0  0  0
    5.3134   -1.0895    0.1763 H   0  0  0  0  0  0  0  0  0  0  0  0
    2.6121    2.0891    0.1805 H   0  0  0  0  0  0  0  0  0  0  0  0
   -0.8289    0.9407    2.0844 H   0  0  0  0  0  0  0  0  0  0  0  0
   -2.8745   -0.3799    1.9428 H   0  0  0  0  0  0  0  0  0  0  0  0
   -5.6424   -2.0885    0.3071 H   0  0  0  0  0  0  0  0  0  0  0  0
   -4.1802   -2.2402    1.3116 H   0  0  0  0  0  0  0  0  0  0  0  0
  1  2  1  0
  1  3  1  0
  1 28  1  0
  1 29  1  0
  3  4  1  0
  4  5  2  0
  4  9  1  0
  5  6  1  0
  5 27  1  0
  6  7  2  0
  6 26  1  0
  7  8  1  0
  7 12  1  0
  8  9  2  0
  8 11  1  0
  9 10  1  0
 12 13  2  0
 12 14  1  0
 14 15  1  0
 14 25  1  0
 15 16  2  0
 15 20  1  0
 16 17  1  0
 17 18  2  0
 17 24  1  0
 18 19  1  0
 18 23  1  0
 19 20  2  0
 19 22  1  0
 20 21  1  0
M  END
$$$$
