
     RDKit          3D

 34 36  0  0  0  0  0  0  0  0999 V2000
   -4.7485   -3.9409    1.3220 C   0  0  0  0  0  0  0  0  0  0  0  0
   -5.0354   -4.6223    2.1180 H   0  0  0  0  0  0  0  0  0  0  0  0
   -5.5308   -3.9338    0.5666 H   0  0  0  0  0  0  0  0  0  0  0  0
   -3.8237   -4.2954    0.8754 H   0  0  0  0  0  0  0  0  0  0  0  0
   -4.5370   -2.5349    1.8939 C   0  0  0  0  0  0  0  0  0  0  0  0
   -4.1954   -1.5809    0.8092 C   0  0  0  0  0  0  0  0  0  0  0  0
   -2.9759   -1.2640    0.2525 C   0  0  0  0  0  0  0  0  0  0  0  0
   -3.2579   -0.3026   -0.7858 C   0  0  0  0  0  0  0  0  0  0  0  0
   -2.5209    0.3621   -1.7632 C   0  0  0  0  0  0  0  0  0  0  0  0
   -3.1863    1.2137   -2.6198 C   0  0  0  0  0  0  0  0  0  0  0  0
   -4.5643    1.4088   -2.5334 C   0  0  0  0  0  0  0  0  0  0  0  0
   -5.3237    0.7406   -1.5934 C   0  0  0  0  0  0  0  0  0  0  0  0
   -4.6525   -0.1146   -0.7361 C   0  0  0  0  0  0  0  0  0  0  0  0
   -5.1971   -0.8847    0.2417 O   0  0  0  0  0  0  0  0  0  0  0  0
   -6.3921    0.8657   -1.5256 H   0  0  0  0  0  0  0  0  0  0  0  0
   -5.0460    2.0867   -3.2208 H   0  0  0  0  0  0  0  0  0  0  0  0
   -2.6289    1.7418   -3.3785 H   0  0  0  0  0  0  0  0  0  0  0  0
   -1.4563    0.2119   -1.8541 H   0  0  0  0  0  0  0  0  0  0  0  0
   -1.7042   -1.8379    0.6753 C   0  0  0  0  0  0  0  0  0  0  0  0
   -1.6168   -2.9308    1.2037 O   0  0  0  0  0  0  0  0  0  0  0  0
   -0.4884   -1.0044    0.4532 C   0  0  0  0  0  0  0  0  0  0  0  0
    0.7159   -1.6413    0.1758 C   0  0  0  0  0  0  0  0  0  0  0  0
    1.8643   -0.8997   -0.0031 C   0  0  0  0  0  0  0  0  0  0  0  0
    1.8610    0.4911    0.1106 C   0  0  0  0  0  0  0  0  0  0  0  0
    0.6444    1.1044    0.4210 C   0  0  0  0  0  0  0  0  0  0  0  0
   -0.5142    0.3804    0.5904 C   0  0  0  0  0  0  0  0  0  0  0  0
   -1.4325    0.8878    0.8404 H   0  0  0  0  0  0  0  0  0  0  0  0
    0.6390    3.2020    0.6064 I   0  0  0  0  0  0  0  0  0  0  0  0
    2.9358    1.2688   -0.0520 O   0  0  0  0  0  0  0  0  0  0  0  0
    3.7245    0.7395   -0.2535 H   0  0  0  0  0  0  0  0  0  0  0  0
    3.6934   -1.8797   -0.4610 I   0  0  0  0  0  0  0  0  0  0  0  0
    0.7319   -2.7176    0.0992 H   0  0  0  0  0  0  0  0  0  0  0  0
   -3.7165   -2.5688    2.6120 H   0  0  0  0  0  0  0  0  0  0  0  0
   -5.4474   -2.1934    2.3894 H   0  0  0  0  0  0  0  0  0  0  0  0
  1  2  1  0
  1  3  1  0
  1  4  1  0
  1  5  1  0
  5  6  1  0
  5 33  1  0
  5 34  1  0
  6  7  2  0
  6 14  1  0
  7  8  1  0
  7 19  1  0
  8  9  2  0
  8 13  1  0
  9 10  1  0
  9 18  1  0
 10 11  2  0
 10 17  1  0
 11 12  1  0
 11 16  1  0
 12 13  2  0
 12 15  1  0
 13 14  1  0
 19 20  2  0
 19 21  1  0
 21 22  2  0
 21 26  1  0
 22 23  1  0
 22 32  1  0
 23 24  2  0
 23 31  1  0
 24 25  1  0
 24 29  1  0
 25 26  2  0
 25 28  1  0
 26 27  1  0
 29 30  1  0
M  END
$$$$

     RDKit          3D

 34 36  0  0  0  0  0  0  0  0999 V2000
   -4.7676   -3.9182   -1.3504 C   0  0  0  0  0  0  0  0  0  0  0  0
   -3.8413   -4.2876   -0.9192 H   0  0  0  0  0  0  0  0  0  0  0  0
   -5.5424   -3.9179   -0.5874 H   0  0  0  0  0  0  0  0  0  0  0  0
   -5.0678   -4.5836   -2.1550 H   0  0  0  0  0  0  0  0  0  0  0  0
   -4.5505   -2.5046   -1.9008 C   0  0  0  0  0  0  0  0  0  0  0  0
   -4.1910   -1.5716   -0.8036 C   0  0  0  0  0  0  0  0  0  0  0  0
   -2.9643   -1.2779   -0.2506 C   0  0  0  0  0  0  0  0  0  0  0  0
   -3.2279   -0.3303    0.8048 C   0  0  0  0  0  0  0  0  0  0  0  0
   -2.4757    0.3088    1.7879 C   0  0  0  0  0  0  0  0  0  0  0  0
   -3.1243    1.1560    2.6616 C   0  0  0  0  0  0  0  0  0  0  0  0
   -4.5001    1.3713    2.5864 C   0  0  0  0  0  0  0  0  0  0  0  0
   -5.2744    0.7273    1.6418 C   0  0  0  0  0  0  0  0  0  0  0  0
   -4.6203   -0.1240    0.7674 C   0  0  0  0  0  0  0  0  0  0  0  0
   -5.1807   -0.8722   -0.2183 O   0  0  0  0  0  0  0  0  0  0  0  0
   -6.3415    0.8672    1.5834 H   0  0  0  0  0  0  0  0  0  0  0  0
   -4.9683    2.0450    3.2872 H   0  0  0  0  0  0  0  0  0  0  0  0
   -2.5556    1.6638    3.4259 H   0  0  0  0  0  0  0  0  0  0  0  0
   -1.4131    0.1403    1.8707 H   0  0  0  0  0  0  0  0  0  0  0  0
   -1.6994   -1.8534   -0.6933 C   0  0  0  0  0  0  0  0  0  0  0  0
   -1.6225   -2.9365   -1.2416 O   0  0  0  0  0  0  0  0  0  0  0  0
   -0.4794   -1.0270   -0.4661 C   0  0  0  0  0  0  0  0  0  0  0  0
    0.7266   -1.6640   -0.1870 C   0  0  0  0  0  0  0  0  0  0  0  0
    1.8700   -0.9210   -0.0025 C   0  0  0  0  0  0  0  0  0  0  0  0
    1.8656    0.4725   -0.1122 C   0  0  0  0  0  0  0  0  0  0  0  0
    0.6514    1.0845   -0.4237 C   0  0  0  0  0  0  0  0  0  0  0  0
   -0.5071    0.3562   -0.5986 C   0  0  0  0  0  0  0  0  0  0  0  0
   -1.4272    0.8606   -0.8483 H   0  0  0  0  0  0  0  0  0  0  0  0
    0.5907    3.2006   -0.6153 I   0  0  0  0  0  0  0  0  0  0  0  0
    3.0157    1.1251    0.0829 O   0  0  0  0  0  0  0  0  0  0  0  0
    2.8998    2.0826   -0.0262 H   0  0  0  0  0  0  0  0  0  0  0  0
    3.7057   -1.8431    0.4572 I   0  0  0  0  0  0  0  0  0  0  0  0
    0.7471   -2.7402   -0.1123 H   0  0  0  0  0  0  0  0  0  0  0  0
   -5.4627   -2.1476   -2.3819 H   0  0  0  0  0  0  0  0  0  0  0  0
   -3.7370   -2.5330   -2.6270 H   0  0  0  0  0  0  0  0  0  0  0  0
  1  2  1  0
  1  3  1  0
  1  4  1  0
  1  5  1  0
  5  6  1  0
  5 33  1  0
  5 34  1  0
  6  7  2  0
  6 14  1  0
  7  8  1  0
  7 19  1  0
  8  9  2  0
  8 13  1  0
  9 10  1  0
  9 18  1  0
 10 11  2  0
 10 17  1  0
 11 12  1  0
 11 16  1  0
 12 13  2  0
 12 15  1  0
 13 14  1  0
 19 20  2  0
 19 21  1  0
 21 22  2  0
 21 26  1  0
 22 23  1  0
 22 32  1  0
 23 24  2  0
 23 31  1  0
 24 25  1  0
 24 29  1  0
 25 26  2  0
 25 28  1  0
 26 27  1  0
 29 30  1  0
M  END
$$$$

     RDKit          3D

 34 36  0  0  0  0  0  0  0  0999 V2000
   -4.8040   -1.9341   -3.0099 C   0  0  0  0  0  0  0  0  0  0  0  0
   -5.0707   -2.5835   -3.8390 H   0  0  0  0  0  0  0  0  0  0  0  0
   -5.6547   -1.2976   -2.7773 H   0  0  0  0  0  0  0  0  0  0  0  0
   -3.9707   -1.3059   -3.3171 H   0  0  0  0  0  0  0  0  0  0  0  0
   -4.4156   -2.7775   -1.7916 C   0  0  0  0  0  0  0  0  0  0  0  0
   -4.0820   -1.9106   -0.6320 C   0  0  0  0  0  0  0  0  0  0  0  0
   -2.8606   -1.5609   -0.1044 C   0  0  0  0  0  0  0  0  0  0  0  0
   -3.1477   -0.6512    0.9781 C   0  0  0  0  0  0  0  0  0  0  0  0
   -2.4044    0.0073    1.9550 C   0  0  0  0  0  0  0  0  0  0  0  0
   -3.0739    0.7999    2.8633 C   0  0  0  0  0  0  0  0  0  0  0  0
   -4.4610    0.9412    2.8281 C   0  0  0  0  0  0  0  0  0  0  0  0
   -5.2247    0.2764    1.8893 C   0  0  0  0  0  0  0  0  0  0  0  0
   -4.5495   -0.5193    0.9792 C   0  0  0  0  0  0  0  0  0  0  0  0
   -5.0939   -1.2759   -0.0076 O   0  0  0  0  0  0  0  0  0  0  0  0
   -6.2989    0.3598    1.8615 H   0  0  0  0  0  0  0  0  0  0  0  0
   -4.9459    1.5735    3.5557 H   0  0  0  0  0  0  0  0  0  0  0  0
   -2.5134    1.3223    3.6238 H   0  0  0  0  0  0  0  0  0  0  0  0
   -1.3322   -0.1046    2.0057 H   0  0  0  0  0  0  0  0  0  0  0  0
   -1.5672   -2.0612   -0.5644 C   0  0  0  0  0  0  0  0  0  0  0  0
   -1.4202   -3.1542   -1.0760 O   0  0  0  0  0  0  0  0  0  0  0  0
   -0.4082   -1.1407   -0.3880 C   0  0  0  0  0  0  0  0  0  0  0  0
   -0.5483    0.2360   -0.5192 C   0  0  0  0  0  0  0  0  0  0  0  0
    0.5558    1.0525   -0.3882 C   0  0  0  0  0  0  0  0  0  0  0  0
    1.8249    0.5374   -0.1231 C   0  0  0  0  0  0  0  0  0  0  0  0
    1.9420   -0.8514   -0.0132 C   0  0  0  0  0  0  0  0  0  0  0  0
    0.8536   -1.6812   -0.1537 C   0  0  0  0  0  0  0  0  0  0  0  0
    0.9590   -2.7525   -0.0789 H   0  0  0  0  0  0  0  0  0  0  0  0
    3.8598   -1.6266    0.3771 I   0  0  0  0  0  0  0  0  0  0  0  0
    2.9272    1.2778    0.0277 O   0  0  0  0  0  0  0  0  0  0  0  0
    2.7333    2.2233   -0.0767 H   0  0  0  0  0  0  0  0  0  0  0  0
    0.3240    3.1569   -0.5778 I   0  0  0  0  0  0  0  0  0  0  0  0
   -1.5135    0.6671   -0.7331 H   0  0  0  0  0  0  0  0  0  0  0  0
   -3.5516   -3.3998   -2.0215 H   0  0  0  0  0  0  0  0  0  0  0  0
   -5.2551   -3.4195   -1.5169 H   0  0  0  0  0  0  0  0  0  0  0  0
  1  2  1  0
  1  3  1  0
  1  4  1  0
  1  5  1  0
  5  6  1  0
  5 33  1  0
  5 34  1  0
  6  7  2  0
  6 14  1  0
  7  8  1  0
  7 19  1  0
  8  9  2  0
  8 13  1  0
  9 10  1  0
  9 18  1  0
 10 11  2  0
 10 17  1  0
 11 12  1  0
 11 16  1  0
 12 13  2  0
 12 15  1  0
 13 14  1  0
 19 20  2  0
 19 21  1  0
 21 22  2  0
 21 26  1  0
 22 23  1  0
 22 32  1  0
 23 24  2  0
 23 31  1  0
 24 25  1  0
 24 29  1  0
 25 26  2  0
 25 28  1  0
 26 27  1  0
 29 30  1  0
M  END
$$$$

     RDKit          3D

 34 36  0  0  0  0  0  0  0  0999 V2000
   -2.0317   -1.5508    2.5898 C   0  0  0  0  0  0  0  0  0  0  0  0
   -3.0184   -1.9531    2.8034 H   0  0  0  0  0  0  0  0  0  0  0  0
   -1.6469   -2.0350    1.6961 H   0  0  0  0  0  0  0  0  0  0  0  0
   -1.3714   -1.7883    3.4194 H   0  0  0  0  0  0  0  0  0  0  0  0
   -2.1103   -0.0341    2.4025 C   0  0  0  0  0  0  0  0  0  0  0  0
   -3.0766    0.3468    1.3331 C   0  0  0  0  0  0  0  0  0  0  0  0
   -2.9404    1.0987    0.1912 C   0  0  0  0  0  0  0  0  0  0  0  0
   -4.2703    1.2330   -0.3500 C   0  0  0  0  0  0  0  0  0  0  0  0
   -4.8110    1.8607   -1.4664 C   0  0  0  0  0  0  0  0  0  0  0  0
   -6.1690    1.7421   -1.6749 C   0  0  0  0  0  0  0  0  0  0  0  0
   -6.9803    1.0126   -0.8046 C   0  0  0  0  0  0  0  0  0  0  0  0
   -6.4619    0.3790    0.3082 C   0  0  0  0  0  0  0  0  0  0  0  0
   -5.0991    0.5045    0.5197 C   0  0  0  0  0  0  0  0  0  0  0  0
   -4.3644   -0.0097    1.5395 O   0  0  0  0  0  0  0  0  0  0  0  0
   -7.0811   -0.1865    0.9855 H   0  0  0  0  0  0  0  0  0  0  0  0
   -8.0386    0.9432   -1.0054 H   0  0  0  0  0  0  0  0  0  0  0  0
   -6.6198    2.2239   -2.5293 H   0  0  0  0  0  0  0  0  0  0  0  0
   -4.1795    2.4288   -2.1305 H   0  0  0  0  0  0  0  0  0  0  0  0
   -1.7508    1.7282   -0.3817 C   0  0  0  0  0  0  0  0  0  0  0  0
   -1.7836    2.8049   -0.9412 O   0  0  0  0  0  0  0  0  0  0  0  0
   -0.4757    0.9612   -0.2738 C   0  0  0  0  0  0  0  0  0  0  0  0
   -0.4553   -0.4277   -0.3580 C   0  0  0  0  0  0  0  0  0  0  0  0
    0.7450   -1.0984   -0.2914 C   0  0  0  0  0  0  0  0  0  0  0  0
    1.9598   -0.4242   -0.1421 C   0  0  0  0  0  0  0  0  0  0  0  0
    1.9148    0.9696   -0.0822 C   0  0  0  0  0  0  0  0  0  0  0  0
    0.7223    1.6573   -0.1581 C   0  0  0  0  0  0  0  0  0  0  0  0
    0.6986    2.7357   -0.1234 H   0  0  0  0  0  0  0  0  0  0  0  0
    3.7384    2.0386    0.1332 I   0  0  0  0  0  0  0  0  0  0  0  0
    3.0787   -1.1514   -0.0712 O   0  0  0  0  0  0  0  0  0  0  0  0
    3.8613   -0.5840    0.0195 H   0  0  0  0  0  0  0  0  0  0  0  0
    0.8135   -3.2011   -0.3932 I   0  0  0  0  0  0  0  0  0  0  0  0
   -1.3755   -0.9737   -0.4943 H   0  0  0  0  0  0  0  0  0  0  0  0
   -1.1278    0.3761    2.1689 H   0  0  0  0  0  0  0  0  0  0  0  0
   -2.4546    0.4134    3.3397 H   0  0  0  0  0  0  0  0  0  0  0  0
  1  2  1  0
  1  3  1  0
  1  4  1  0
  1  5  1  0
  5  6  1  0
  5 33  1  0
  5 34  1  0
  6  7  2  0
  6 14  1  0
  7  8  1  0
  7 19  1  0
  8  9  2  0
  8 13  1  0
  9 10  1  0
  9 18  1  0
 10 11  2  0
 10 17  1  0
 11 12  1  0
 11 16  1  0
 12 13  2  0
 12 15  1  0
 13 14  1  0
 19 20  2  0
 19 21  1  0
 21 22  2  0
 21 26  1  0
 22 23  1  0
 22 32  1  0
 23 24  2  0
 23 31  1  0
 24 25  1  0
 24 29  1  0
 25 26  2  0
 25 28  1  0
 26 27  1  0
 29 30  1  0
M  END
$$$$

     RDKit          3D

 34 36  0  0  0  0  0  0  0  0999 V2000
   -1.5728   -1.2917   -2.9859 C   0  0  0  0  0  0  0  0  0  0  0  0
   -2.3811   -1.9051   -3.3761 H   0  0  0  0  0  0  0  0  0  0  0  0
   -0.8838   -1.0693   -3.7965 H   0  0  0  0  0  0  0  0  0  0  0  0
   -1.0445   -1.8624   -2.2259 H   0  0  0  0  0  0  0  0  0  0  0  0
   -2.1233    0.0086   -2.3967 C   0  0  0  0  0  0  0  0  0  0  0  0
   -3.1026   -0.2616   -1.3045 C   0  0  0  0  0  0  0  0  0  0  0  0
   -2.9891   -0.9310   -0.1093 C   0  0  0  0  0  0  0  0  0  0  0  0
   -4.3246   -0.9995    0.4291 C   0  0  0  0  0  0  0  0  0  0  0  0
   -4.8848   -1.5325    1.5848 C   0  0  0  0  0  0  0  0  0  0  0  0
   -6.2416   -1.3744    1.7724 C   0  0  0  0  0  0  0  0  0  0  0  0
   -7.0335   -0.6974    0.8435 C   0  0  0  0  0  0  0  0  0  0  0  0
   -6.4959   -0.1581   -0.3091 C   0  0  0  0  0  0  0  0  0  0  0  0
   -5.1341   -0.3232   -0.4992 C   0  0  0  0  0  0  0  0  0  0  0  0
   -4.3811    0.1010   -1.5473 O   0  0  0  0  0  0  0  0  0  0  0  0
   -7.0997    0.3666   -1.0316 H   0  0  0  0  0  0  0  0  0  0  0  0
   -8.0916   -0.5944    1.0299 H   0  0  0  0  0  0  0  0  0  0  0  0
   -6.7073   -1.7830    2.6565 H   0  0  0  0  0  0  0  0  0  0  0  0
   -4.2687   -2.0609    2.2946 H   0  0  0  0  0  0  0  0  0  0  0  0
   -1.8179   -1.5463    0.5136 C   0  0  0  0  0  0  0  0  0  0  0  0
   -1.8808   -2.5765    1.1526 O   0  0  0  0  0  0  0  0  0  0  0  0
   -0.5194   -0.8289    0.3503 C   0  0  0  0  0  0  0  0  0  0  0  0
    0.6536   -1.5719    0.2818 C   0  0  0  0  0  0  0  0  0  0  0  0
    1.8692   -0.9334    0.1583 C   0  0  0  0  0  0  0  0  0  0  0  0
    1.9629    0.4585    0.1267 C   0  0  0  0  0  0  0  0  0  0  0  0
    0.7725    1.1833    0.2308 C   0  0  0  0  0  0  0  0  0  0  0  0
   -0.4515    0.5608    0.3372 C   0  0  0  0  0  0  0  0  0  0  0  0
   -1.3509    1.1490    0.4349 H   0  0  0  0  0  0  0  0  0  0  0  0
    0.9149    3.2847    0.1992 I   0  0  0  0  0  0  0  0  0  0  0  0
    3.1064    1.1400    0.0095 O   0  0  0  0  0  0  0  0  0  0  0  0
    3.8686    0.5407   -0.0425 H   0  0  0  0  0  0  0  0  0  0  0  0
    3.6531   -2.0784    0.0127 I   0  0  0  0  0  0  0  0  0  0  0  0
    0.5936   -2.6487    0.3228 H   0  0  0  0  0  0  0  0  0  0  0  0
   -2.6438    0.5738   -3.1716 H   0  0  0  0  0  0  0  0  0  0  0  0
   -1.2954    0.6160   -2.0262 H   0  0  0  0  0  0  0  0  0  0  0  0
  1  2  1  0
  1  3  1  0
  1  4  1  0
  1  5  1  0
  5  6  1  0
  5 33  1  0
  5 34  1  0
  6  7  2  0
  6 14  1  0
  7  8  1  0
  7 19  1  0
  8  9  2  0
  8 13  1  0
  9 10  1  0
  9 18  1  0
 10 11  2  0
 10 17  1  0
 11 12  1  0
 11 16  1  0
 12 13  2  0
 12 15  1  0
 13 14  1  0
 19 20  2  0
 19 21  1  0
 21 22  2  0
 21 26  1  0
 22 23  1  0
 22 32  1  0
 23 24  2  0
 23 31  1  0
 24 25  1  0
 24 29  1  0
 25 26  2  0
 25 28  1  0
 26 27  1  0
 29 30  1  0
M  END
$$$$

     RDKit          3D

 34 36  0  0  0  0  0  0  0  0999 V2000
   -1.9880   -1.4748   -2.6244 C   0  0  0  0  0  0  0  0  0  0  0  0
   -1.6169   -1.9743   -1.7332 H   0  0  0  0  0  0  0  0  0  0  0  0
   -2.9687   -1.8782   -2.8624 H   0  0  0  0  0  0  0  0  0  0  0  0
   -1.3124   -1.6926   -3.4472 H   0  0  0  0  0  0  0  0  0  0  0  0
   -2.0780    0.0372   -2.4077 C   0  0  0  0  0  0  0  0  0  0  0  0
   -3.0564    0.3891   -1.3393 C   0  0  0  0  0  0  0  0  0  0  0  0
   -2.9332    1.1099   -0.1763 C   0  0  0  0  0  0  0  0  0  0  0  0
   -4.2687    1.2265    0.3552 C   0  0  0  0  0  0  0  0  0  0  0  0
   -4.8217    1.8233    1.4825 C   0  0  0  0  0  0  0  0  0  0  0  0
   -6.1814    1.6966    1.6742 C   0  0  0  0  0  0  0  0  0  0  0  0
   -6.9825    0.9890    0.7769 C   0  0  0  0  0  0  0  0  0  0  0  0
   -6.4518    0.3863   -0.3474 C   0  0  0  0  0  0  0  0  0  0  0  0
   -5.0873    0.5201   -0.5419 C   0  0  0  0  0  0  0  0  0  0  0  0
   -4.3413    0.0346   -1.5678 O   0  0  0  0  0  0  0  0  0  0  0  0
   -7.0633   -0.1618   -1.0458 H   0  0  0  0  0  0  0  0  0  0  0  0
   -8.0425    0.9124    0.9651 H   0  0  0  0  0  0  0  0  0  0  0  0
   -6.6417    2.1548    2.5365 H   0  0  0  0  0  0  0  0  0  0  0  0
   -4.1978    2.3750    2.1674 H   0  0  0  0  0  0  0  0  0  0  0  0
   -1.7502    1.7277    0.4237 C   0  0  0  0  0  0  0  0  0  0  0  0
   -1.7933    2.7847    1.0178 O   0  0  0  0  0  0  0  0  0  0  0  0
   -0.4699    0.9717    0.2976 C   0  0  0  0  0  0  0  0  0  0  0  0
   -0.4448   -0.4157    0.3687 C   0  0  0  0  0  0  0  0  0  0  0  0
    0.7596   -1.0843    0.2906 C   0  0  0  0  0  0  0  0  0  0  0  0
    1.9685   -0.4052    0.1392 C   0  0  0  0  0  0  0  0  0  0  0  0
    1.9176    0.9912    0.0901 C   0  0  0  0  0  0  0  0  0  0  0  0
    0.7266    1.6742    0.1805 C   0  0  0  0  0  0  0  0  0  0  0  0
    0.7023    2.7527    0.1555 H   0  0  0  0  0  0  0  0  0  0  0  0
    3.7449    2.0125   -0.1301 I   0  0  0  0  0  0  0  0  0  0  0  0
    3.1630   -0.9967    0.0431 O   0  0  0  0  0  0  0  0  0  0  0  0
    3.0835   -1.9625    0.0988 H   0  0  0  0  0  0  0  0  0  0  0  0
    0.7852   -3.2082    0.3873 I   0  0  0  0  0  0  0  0  0  0  0  0
   -1.3638   -0.9640    0.5042 H   0  0  0  0  0  0  0  0  0  0  0  0
   -2.4166    0.5008   -3.3388 H   0  0  0  0  0  0  0  0  0  0  0  0
   -1.1005    0.4492   -2.1567 H   0  0  0  0  0  0  0  0  0  0  0  0
  1  2  1  0
  1  3  1  0
  1  4  1  0
  1  5  1  0
  5  6  1  0
  5 33  1  0
  5 34  1  0
  6  7  2  0
  6 14  1  0
  7  8  1  0
  7 19  1  0
  8  9  2  0
  8 13  1  0
  9 10  1  0
  9 18  1  0
 10 11  2  0
 10 17  1  0
 11 12  1  0
 11 16  1  0
 12 13  2  0
 12 15  1  0
 13 14  1  0
 19 20  2  0
 19 21  1  0
 21 22  2  0
 21 26  1  0
 22 23  1  0
 22 32  1  0
 23 24  2  0
 23 31  1  0
 24 25  1  0
 24 29  1  0
 25 26  2  0
 25 28  1  0
 26 27  1  0
 29 30  1  0
M  END
$$$$

     RDKit          3D

 34 36  0  0  0  0  0  0  0  0999 V2000
   -1.5533   -1.4026    2.9577 C   0  0  0  0  0  0  0  0  0  0  0  0
   -2.3677   -2.0133    3.3392 H   0  0  0  0  0  0  0  0  0  0  0  0
   -1.0373   -1.9630    2.1818 H   0  0  0  0  0  0  0  0  0  0  0  0
   -0.8563   -1.2082    3.7686 H   0  0  0  0  0  0  0  0  0  0  0  0
   -2.0896   -0.0820    2.4013 C   0  0  0  0  0  0  0  0  0  0  0  0
   -3.0796   -0.3155    1.3104 C   0  0  0  0  0  0  0  0  0  0  0  0
   -2.9782   -0.9499    0.0954 C   0  0  0  0  0  0  0  0  0  0  0  0
   -4.3183   -0.9987   -0.4336 C   0  0  0  0  0  0  0  0  0  0  0  0
   -4.8896   -1.4962   -1.5996 C   0  0  0  0  0  0  0  0  0  0  0  0
   -6.2475   -1.3289   -1.7710 C   0  0  0  0  0  0  0  0  0  0  0  0
   -7.0296   -0.6772   -0.8160 C   0  0  0  0  0  0  0  0  0  0  0  0
   -6.4808   -0.1732    0.3472 C   0  0  0  0  0  0  0  0  0  0  0  0
   -5.1180   -0.3475    0.5210 C   0  0  0  0  0  0  0  0  0  0  0  0
   -4.3549    0.0443    1.5746 O   0  0  0  0  0  0  0  0  0  0  0  0
   -7.0772    0.3316    1.0900 H   0  0  0  0  0  0  0  0  0  0  0  0
   -8.0889   -0.5658   -0.9905 H   0  0  0  0  0  0  0  0  0  0  0  0
   -6.7218   -1.7102   -2.6627 H   0  0  0  0  0  0  0  0  0  0  0  0
   -4.2809   -2.0054   -2.3294 H   0  0  0  0  0  0  0  0  0  0  0  0
   -1.8126   -1.5498   -0.5536 C   0  0  0  0  0  0  0  0  0  0  0  0
   -1.8831   -2.5577   -1.2254 O   0  0  0  0  0  0  0  0  0  0  0  0
   -0.5108   -0.8417   -0.3734 C   0  0  0  0  0  0  0  0  0  0  0  0
   -0.4428    0.5456   -0.3446 C   0  0  0  0  0  0  0  0  0  0  0  0
    0.7832    1.1693   -0.2275 C   0  0  0  0  0  0  0  0  0  0  0  0
    1.9702    0.4436   -0.1253 C   0  0  0  0  0  0  0  0  0  0  0  0
    1.8750   -0.9504   -0.1692 C   0  0  0  0  0  0  0  0  0  0  0  0
    0.6630   -1.5871   -0.3061 C   0  0  0  0  0  0  0  0  0  0  0  0
    0.6062   -2.6636   -0.3584 H   0  0  0  0  0  0  0  0  0  0  0  0
    3.6678   -2.0422   -0.0174 I   0  0  0  0  0  0  0  0  0  0  0  0
    3.1830    0.9891    0.0065 O   0  0  0  0  0  0  0  0  0  0  0  0
    3.1351    1.9586    0.0129 H   0  0  0  0  0  0  0  0  0  0  0  0
    0.8756    3.2934   -0.1841 I   0  0  0  0  0  0  0  0  0  0  0  0
   -1.3434    1.1330   -0.4372 H   0  0  0  0  0  0  0  0  0  0  0  0
   -1.2553    0.5207    2.0375 H   0  0  0  0  0  0  0  0  0  0  0  0
   -2.5965    0.4736    3.1921 H   0  0  0  0  0  0  0  0  0  0  0  0
  1  2  1  0
  1  3  1  0
  1  4  1  0
  1  5  1  0
  5  6  1  0
  5 33  1  0
  5 34  1  0
  6  7  2  0
  6 14  1  0
  7  8  1  0
  7 19  1  0
  8  9  2  0
  8 13  1  0
  9 10  1  0
  9 18  1  0
 10 11  2  0
 10 17  1  0
 11 12  1  0
 11 16  1  0
 12 13  2  0
 12 15  1  0
 13 14  1  0
 19 20  2  0
 19 21  1  0
 21 22  2  0
 21 26  1  0
 22 23  1  0
 22 32  1  0
 23 24  2  0
 23 31  1  0
 24 25  1  0
 24 29  1  0
 25 26  2  0
 25 28  1  0
 26 27  1  0
 29 30  1  0
M  END
$$$$

     RDKit          3D

 34 36  0  0  0  0  0  0  0  0999 V2000
   -2.3509   -1.1376   -3.4734 C   0  0  0  0  0  0  0  0  0  0  0  0
   -1.7048   -0.9345   -4.3233 H   0  0  0  0  0  0  0  0  0  0  0  0
   -2.0497   -2.0803   -3.0220 H   0  0  0  0  0  0  0  0  0  0  0  0
   -3.3738   -1.2344   -3.8289 H   0  0  0  0  0  0  0  0  0  0  0  0
   -2.2465   -0.0008   -2.4509 C   0  0  0  0  0  0  0  0  0  0  0  0
   -3.1460   -0.2681   -1.2938 C   0  0  0  0  0  0  0  0  0  0  0  0
   -2.9623   -0.9864   -0.1379 C   0  0  0  0  0  0  0  0  0  0  0  0
   -4.2574   -1.0535    0.4911 C   0  0  0  0  0  0  0  0  0  0  0  0
   -4.7447   -1.6207    1.6633 C   0  0  0  0  0  0  0  0  0  0  0  0
   -6.0809   -1.4450    1.9544 C   0  0  0  0  0  0  0  0  0  0  0  0
   -6.9222   -0.7173    1.1113 C   0  0  0  0  0  0  0  0  0  0  0  0
   -6.4571   -0.1436   -0.0561 C   0  0  0  0  0  0  0  0  0  0  0  0
   -5.1164   -0.3264   -0.3508 C   0  0  0  0  0  0  0  0  0  0  0  0
   -4.4317    0.1271   -1.4322 O   0  0  0  0  0  0  0  0  0  0  0  0
   -7.0998    0.4204   -0.7125 H   0  0  0  0  0  0  0  0  0  0  0  0
   -7.9617   -0.6014    1.3778 H   0  0  0  0  0  0  0  0  0  0  0  0
   -6.4907   -1.8789    2.8540 H   0  0  0  0  0  0  0  0  0  0  0  0
   -4.0910   -2.1881    2.3063 H   0  0  0  0  0  0  0  0  0  0  0  0
   -1.7584   -1.6347    0.3844 C   0  0  0  0  0  0  0  0  0  0  0  0
   -1.7856   -2.7188    0.9302 O   0  0  0  0  0  0  0  0  0  0  0  0
   -0.4788   -0.8793    0.2560 C   0  0  0  0  0  0  0  0  0  0  0  0
   -0.4431    0.5127    0.2648 C   0  0  0  0  0  0  0  0  0  0  0  0
    0.7676    1.1651    0.2008 C   0  0  0  0  0  0  0  0  0  0  0  0
    1.9781    0.4706    0.1232 C   0  0  0  0  0  0  0  0  0  0  0  0
    1.9169   -0.9238    0.1294 C   0  0  0  0  0  0  0  0  0  0  0  0
    0.7141   -1.5926    0.2056 C   0  0  0  0  0  0  0  0  0  0  0  0
    0.6765   -2.6710    0.2258 H   0  0  0  0  0  0  0  0  0  0  0  0
    3.7324   -2.0225    0.0214 I   0  0  0  0  0  0  0  0  0  0  0  0
    3.1075    1.1806    0.0529 O   0  0  0  0  0  0  0  0  0  0  0  0
    3.8855    0.6008    0.0155 H   0  0  0  0  0  0  0  0  0  0  0  0
    0.8606    3.2690    0.2057 I   0  0  0  0  0  0  0  0  0  0  0  0
   -1.3580    1.0796    0.3388 H   0  0  0  0  0  0  0  0  0  0  0  0
   -2.5538    0.9364   -2.9185 H   0  0  0  0  0  0  0  0  0  0  0  0
   -1.2143    0.0920   -2.1140 H   0  0  0  0  0  0  0  0  0  0  0  0
  1  2  1  0
  1  3  1  0
  1  4  1  0
  1  5  1  0
  5  6  1  0
  5 33  1  0
  5 34  1  0
  6  7  2  0
  6 14  1  0
  7  8  1  0
  7 19  1  0
  8  9  2  0
  8 13  1  0
  9 10  1  0
  9 18  1  0
 10 11  2  0
 10 17  1  0
 11 12  1  0
 11 16  1  0
 12 13  2  0
 12 15  1  0
 13 14  1  0
 19 20  2  0
 19 21  1  0
 21 22  2  0
 21 26  1  0
 22 23  1  0
 22 32  1  0
 23 24  2  0
 23 31  1  0
 24 25  1  0
 24 29  1  0
 25 26  2  0
 25 28  1  0
 26 27  1  0
 29 30  1  0
M  END
$$$$

     RDKit          3D

 34 36  0  0  0  0  0  0  0  0999 V2000
   -2.5059   -0.9434   -3.5750 C   0  0  0  0  0  0  0  0  0  0  0  0
   -1.8556   -0.7203   -4.4166 H   0  0  0  0  0  0  0  0  0  0  0  0
   -2.3329   -1.9707   -3.2627 H   0  0  0  0  0  0  0  0  0  0  0  0
   -3.5396   -0.8467   -3.8969 H   0  0  0  0  0  0  0  0  0  0  0  0
   -2.2164    0.0190   -2.4184 C   0  0  0  0  0  0  0  0  0  0  0  0
   -3.1241   -0.2696   -1.2728 C   0  0  0  0  0  0  0  0  0  0  0  0
   -2.9491   -0.9996   -0.1231 C   0  0  0  0  0  0  0  0  0  0  0  0
   -4.2502   -1.0756    0.4936 C   0  0  0  0  0  0  0  0  0  0  0  0
   -4.7475   -1.6589    1.6536 C   0  0  0  0  0  0  0  0  0  0  0  0
   -6.0871   -1.4906    1.9334 C   0  0  0  0  0  0  0  0  0  0  0  0
   -6.9220   -0.7546    1.0912 C   0  0  0  0  0  0  0  0  0  0  0  0
   -6.4468   -0.1647   -0.0641 C   0  0  0  0  0  0  0  0  0  0  0  0
   -5.1027   -0.3404   -0.3474 C   0  0  0  0  0  0  0  0  0  0  0  0
   -4.4091    0.1278   -1.4169 O   0  0  0  0  0  0  0  0  0  0  0  0
   -7.0845    0.4053   -0.7201 H   0  0  0  0  0  0  0  0  0  0  0  0
   -7.9646   -0.6453    1.3483 H   0  0  0  0  0  0  0  0  0  0  0  0
   -6.5048   -1.9375    2.8229 H   0  0  0  0  0  0  0  0  0  0  0  0
   -4.0985   -2.2330    2.2955 H   0  0  0  0  0  0  0  0  0  0  0  0
   -1.7487   -1.6476    0.4080 C   0  0  0  0  0  0  0  0  0  0  0  0
   -1.7823   -2.7253    0.9651 O   0  0  0  0  0  0  0  0  0  0  0  0
   -0.4649   -0.8996    0.2740 C   0  0  0  0  0  0  0  0  0  0  0  0
    0.7272   -1.6174    0.2133 C   0  0  0  0  0  0  0  0  0  0  0  0
    1.9281   -0.9521    0.1280 C   0  0  0  0  0  0  0  0  0  0  0  0
    1.9942    0.4446    0.1247 C   0  0  0  0  0  0  0  0  0  0  0  0
    0.7888    1.1417    0.2130 C   0  0  0  0  0  0  0  0  0  0  0  0
   -0.4253    0.4901    0.2849 C   0  0  0  0  0  0  0  0  0  0  0  0
   -1.3394    1.0574    0.3642 H   0  0  0  0  0  0  0  0  0  0  0  0
    0.8356    3.2668    0.2260 I   0  0  0  0  0  0  0  0  0  0  0  0
    3.1973    1.0191    0.0414 O   0  0  0  0  0  0  0  0  0  0  0  0
    3.1281    1.9873    0.0577 H   0  0  0  0  0  0  0  0  0  0  0  0
    3.7484   -2.0006   -0.0015 I   0  0  0  0  0  0  0  0  0  0  0  0
    0.6894   -2.6958    0.2311 H   0  0  0  0  0  0  0  0  0  0  0  0
   -2.3878    1.0444   -2.7532 H   0  0  0  0  0  0  0  0  0  0  0  0
   -1.1775   -0.0846   -2.1072 H   0  0  0  0  0  0  0  0  0  0  0  0
  1  2  1  0
  1  3  1  0
  1  4  1  0
  1  5  1  0
  5  6  1  0
  5 33  1  0
  5 34  1  0
  6  7  2  0
  6 14  1  0
  7  8  1  0
  7 19  1  0
  8  9  2  0
  8 13  1  0
  9 10  1  0
  9 18  1  0
 10 11  2  0
 10 17  1  0
 11 12  1  0
 11 16  1  0
 12 13  2  0
 12 15  1  0
 13 14  1  0
 19 20  2  0
 19 21  1  0
 21 22  2  0
 21 26  1  0
 22 23  1  0
 22 32  1  0
 23 24  2  0
 23 31  1  0
 24 25  1  0
 24 29  1  0
 25 26  2  0
 25 28  1  0
 26 27  1  0
 29 30  1  0
M  END
$$$$

     RDKit          3D

 34 36  0  0  0  0  0  0  0  0999 V2000
   -1.5125   -1.3216   -3.1962 C   0  0  0  0  0  0  0  0  0  0  0  0
   -1.3433   -2.3105   -2.7770 H   0  0  0  0  0  0  0  0  0  0  0  0
   -1.2859   -1.3573   -4.2588 H   0  0  0  0  0  0  0  0  0  0  0  0
   -0.8274   -0.6213   -2.7246 H   0  0  0  0  0  0  0  0  0  0  0  0
   -2.9584   -0.8916   -2.9951 C   0  0  0  0  0  0  0  0  0  0  0  0
   -3.4212   -0.9344   -1.5776 C   0  0  0  0  0  0  0  0  0  0  0  0
   -2.8621   -1.4153   -0.4313 C   0  0  0  0  0  0  0  0  0  0  0  0
   -3.8521   -1.2390    0.5990 C   0  0  0  0  0  0  0  0  0  0  0  0
   -3.9024   -1.5119    1.9623 C   0  0  0  0  0  0  0  0  0  0  0  0
   -5.0519   -1.1736    2.6438 C   0  0  0  0  0  0  0  0  0  0  0  0
   -6.1325   -0.5717    1.9973 C   0  0  0  0  0  0  0  0  0  0  0  0
   -6.1015   -0.2902    0.6455 C   0  0  0  0  0  0  0  0  0  0  0  0
   -4.9486   -0.6335   -0.0410 C   0  0  0  0  0  0  0  0  0  0  0  0
   -4.6796   -0.4610   -1.3568 O   0  0  0  0  0  0  0  0  0  0  0  0
   -6.9318    0.1743    0.1387 H   0  0  0  0  0  0  0  0  0  0  0  0
   -7.0134   -0.3214    2.5684 H   0  0  0  0  0  0  0  0  0  0  0  0
   -5.1221   -1.3773    3.7017 H   0  0  0  0  0  0  0  0  0  0  0  0
   -3.0685   -1.9822    2.4600 H   0  0  0  0  0  0  0  0  0  0  0  0
   -1.5407   -2.0323   -0.1802 C   0  0  0  0  0  0  0  0  0  0  0  0
   -1.3994   -3.2195    0.0089 O   0  0  0  0  0  0  0  0  0  0  0  0
   -0.3939   -1.0877   -0.0937 C   0  0  0  0  0  0  0  0  0  0  0  0
    0.8917   -1.6136    0.0059 C   0  0  0  0  0  0  0  0  0  0  0  0
    1.9778   -0.7728    0.0985 C   0  0  0  0  0  0  0  0  0  0  0  0
    1.8274    0.6158    0.1036 C   0  0  0  0  0  0  0  0  0  0  0  0
    0.5263    1.1206    0.0125 C   0  0  0  0  0  0  0  0  0  0  0  0
   -0.5695    0.2942   -0.0847 C   0  0  0  0  0  0  0  0  0  0  0  0
   -1.5599    0.7173   -0.1475 H   0  0  0  0  0  0  0  0  0  0  0  0
    0.3025    3.2146    0.0225 I   0  0  0  0  0  0  0  0  0  0  0  0
    2.8349    1.4864    0.1898 O   0  0  0  0  0  0  0  0  0  0  0  0
    3.6904    1.0308    0.2535 H   0  0  0  0  0  0  0  0  0  0  0  0
    3.9370   -1.5835    0.2352 I   0  0  0  0  0  0  0  0  0  0  0  0
    1.0114   -2.6865    0.0068 H   0  0  0  0  0  0  0  0  0  0  0  0
   -3.6182   -1.5416   -3.5789 H   0  0  0  0  0  0  0  0  0  0  0  0
   -3.1037    0.1256   -3.3709 H   0  0  0  0  0  0  0  0  0  0  0  0
  1  2  1  0
  1  3  1  0
  1  4  1  0
  1  5  1  0
  5  6  1  0
  5 33  1  0
  5 34  1  0
  6  7  2  0
  6 14  1  0
  7  8  1  0
  7 19  1  0
  8  9  2  0
  8 13  1  0
  9 10  1  0
  9 18  1  0
 10 11  2  0
 10 17  1  0
 11 12  1  0
 11 16  1  0
 12 13  2  0
 12 15  1  0
 13 14  1  0
 19 20  2  0
 19 21  1  0
 21 22  2  0
 21 26  1  0
 22 23  1  0
 22 32  1  0
 23 24  2  0
 23 31  1  0
 24 25  1  0
 24 29  1  0
 25 26  2  0
 25 28  1  0
 26 27  1  0
 29 30  1  0
M  END
$$$$
