
     RDKit          3D

 18 17  0  0  0  0  0  0  0  0999 V2000
   -0.8034   -1.9447    0.3474 C   0  0  0  0  0  0  0  0  0  0  0  0
   -0.6174   -0.6655   -0.2986 N   0  0  0  0  0  0  0  0  0  0  0  0
   -1.4390    0.3931   -0.0692 C   0  0  0  0  0  0  0  0  0  0  0  0
   -0.9902    1.5816   -0.2648 N   0  0  0  0  0  0  0  0  0  0  0  0
   -1.6718    2.3206   -0.1540 H   0  0  0  0  0  0  0  0  0  0  0  0
   -2.7046    0.0952    0.3836 N   0  0  0  0  0  0  0  0  0  0  0  0
   -3.1012   -0.7971    0.1413 H   0  0  0  0  0  0  0  0  0  0  0  0
   -3.3592    0.8604    0.3967 H   0  0  0  0  0  0  0  0  0  0  0  0
    0.6533   -0.4377   -0.9607 C   0  0  0  0  0  0  0  0  0  0  0  0
    0.4985    0.2965   -1.7573 H   0  0  0  0  0  0  0  0  0  0  0  0
    0.9952   -1.3807   -1.3907 H   0  0  0  0  0  0  0  0  0  0  0  0
    1.7365    0.1054   -0.0059 C   0  0  0  0  0  0  0  0  0  0  0  0
    2.7152   -0.5334    0.2757 O   0  0  0  0  0  0  0  0  0  0  0  0
    1.4904    1.3087    0.4641 O   0  0  0  0  0  0  0  0  0  0  0  0
    0.5710    1.6250    0.1614 H   0  0  0  0  0  0  0  0  0  0  0  0
   -1.2686   -2.6686   -0.3310 H   0  0  0  0  0  0  0  0  0  0  0  0
    0.1673   -2.3326    0.6553 H   0  0  0  0  0  0  0  0  0  0  0  0
   -1.4213   -1.8357    1.2376 H   0  0  0  0  0  0  0  0  0  0  0  0
  1  2  1  0
  1 16  1  0
  1 17  1  0
  1 18  1  0
  2  3  1  0
  2  9  1  0
  3  4  2  0
  3  6  1  0
  4  5  1  0
  6  7  1  0
  6  8  1  0
  9 10  1  0
  9 11  1  0
  9 12  1  0
 12 13  2  0
 12 14  1  0
 14 15  1  0
M  END
$$$$

     RDKit          3D

 18 17  0  0  0  0  0  0  0  0999 V2000
   -0.7010   -1.8254   -0.4446 C   0  0  0  0  0  0  0  0  0  0  0  0
   -0.6294   -0.3941   -0.6077 N   0  0  0  0  0  0  0  0  0  0  0  0
   -1.5271    0.4543   -0.0066 C   0  0  0  0  0  0  0  0  0  0  0  0
   -1.3652    1.7104   -0.1467 N   0  0  0  0  0  0  0  0  0  0  0  0
   -2.0939    2.2699    0.2812 H   0  0  0  0  0  0  0  0  0  0  0  0
   -2.6127   -0.1516    0.6108 N   0  0  0  0  0  0  0  0  0  0  0  0
   -2.4348   -1.0158    1.0968 H   0  0  0  0  0  0  0  0  0  0  0  0
   -3.1909    0.4857    1.1377 H   0  0  0  0  0  0  0  0  0  0  0  0
    0.6513    0.1667   -0.9439 C   0  0  0  0  0  0  0  0  0  0  0  0
    0.4874    1.2327   -1.1336 H   0  0  0  0  0  0  0  0  0  0  0  0
    1.0613   -0.3013   -1.8428 H   0  0  0  0  0  0  0  0  0  0  0  0
    1.6512    0.0419    0.1874 C   0  0  0  0  0  0  0  0  0  0  0  0
    1.4082   -0.3632    1.2921 O   0  0  0  0  0  0  0  0  0  0  0  0
    2.8732    0.4403   -0.1861 O   0  0  0  0  0  0  0  0  0  0  0  0
    3.4920    0.3825    0.5592 H   0  0  0  0  0  0  0  0  0  0  0  0
   -0.0389   -2.2842   -1.1785 H   0  0  0  0  0  0  0  0  0  0  0  0
   -0.3872   -2.1561    0.5529 H   0  0  0  0  0  0  0  0  0  0  0  0
   -1.7165   -2.1680   -0.6428 H   0  0  0  0  0  0  0  0  0  0  0  0
  1  2  1  0
  1 16  1  0
  1 17  1  0
  1 18  1  0
  2  3  1  0
  2  9  1  0
  3  4  2  0
  3  6  1  0
  4  5  1  0
  6  7  1  0
  6  8  1  0
  9 10  1  0
  9 11  1  0
  9 12  1  0
 12 13  2  0
 12 14  1  0
 14 15  1  0
M  END
$$$$

     RDKit          3D

 18 17  0  0  0  0  0  0  0  0999 V2000
   -2.1176   -1.4871    0.0491 C   0  0  0  0  0  0  0  0  0  0  0  0
   -0.9508   -0.6534   -0.0593 N   0  0  0  0  0  0  0  0  0  0  0  0
   -0.9653    0.6899   -0.1090 C   0  0  0  0  0  0  0  0  0  0  0  0
    0.1771    1.2289   -0.3601 N   0  0  0  0  0  0  0  0  0  0  0  0
    0.2822    2.2267   -0.2674 H   0  0  0  0  0  0  0  0  0  0  0  0
   -2.1552    1.3558    0.0376 N   0  0  0  0  0  0  0  0  0  0  0  0
   -2.8823    0.8952    0.5595 H   0  0  0  0  0  0  0  0  0  0  0  0
   -2.0811    2.3460    0.2073 H   0  0  0  0  0  0  0  0  0  0  0  0
    0.3682   -1.2164   -0.2265 C   0  0  0  0  0  0  0  0  0  0  0  0
    0.5493   -1.5099   -1.2653 H   0  0  0  0  0  0  0  0  0  0  0  0
    0.4948   -2.0729    0.4389 H   0  0  0  0  0  0  0  0  0  0  0  0
    1.4127   -0.1379    0.1577 C   0  0  0  0  0  0  0  0  0  0  0  0
    1.6995    0.1211    1.3130 O   0  0  0  0  0  0  0  0  0  0  0  0
    2.3360   -0.0251   -0.8421 O   0  0  0  0  0  0  0  0  0  0  0  0
    3.0518    0.5419   -0.5242 H   0  0  0  0  0  0  0  0  0  0  0  0
   -2.5059   -1.5067    1.0738 H   0  0  0  0  0  0  0  0  0  0  0  0
   -2.9045   -1.1428   -0.6259 H   0  0  0  0  0  0  0  0  0  0  0  0
   -1.8468   -2.5023   -0.2314 H   0  0  0  0  0  0  0  0  0  0  0  0
  1  2  1  0
  1 16  1  0
  1 17  1  0
  1 18  1  0
  2  3  1  0
  2  9  1  0
  3  4  2  0
  3  6  1  0
  4  5  1  0
  6  7  1  0
  6  8  1  0
  9 10  1  0
  9 11  1  0
  9 12  1  0
 12 13  2  0
 12 14  1  0
 14 15  1  0
M  END
$$$$

     RDKit          3D

 18 17  0  0  0  0  0  0  0  0999 V2000
   -0.7104   -1.9824   -0.0705 C   0  0  0  0  0  0  0  0  0  0  0  0
   -0.5953   -0.6136    0.3665 N   0  0  0  0  0  0  0  0  0  0  0  0
   -1.5190    0.3123   -0.0510 C   0  0  0  0  0  0  0  0  0  0  0  0
   -2.5768   -0.1012   -0.6273 N   0  0  0  0  0  0  0  0  0  0  0  0
   -3.2194    0.6394   -0.8847 H   0  0  0  0  0  0  0  0  0  0  0  0
   -1.2417    1.6301    0.2889 N   0  0  0  0  0  0  0  0  0  0  0  0
   -0.2822    1.9342    0.2034 H   0  0  0  0  0  0  0  0  0  0  0  0
   -1.8910    2.2916   -0.1110 H   0  0  0  0  0  0  0  0  0  0  0  0
    0.6133   -0.2445    1.0629 C   0  0  0  0  0  0  0  0  0  0  0  0
    1.0066   -1.1285    1.5681 H   0  0  0  0  0  0  0  0  0  0  0  0
    0.4057    0.5428    1.7921 H   0  0  0  0  0  0  0  0  0  0  0  0
    1.6232    0.2499    0.0377 C   0  0  0  0  0  0  0  0  0  0  0  0
    1.6908    1.3829   -0.3681 O   0  0  0  0  0  0  0  0  0  0  0  0
    2.3743   -0.7379   -0.4461 O   0  0  0  0  0  0  0  0  0  0  0  0
    2.9535   -0.4218   -1.1591 H   0  0  0  0  0  0  0  0  0  0  0  0
   -0.7258   -2.6522    0.7925 H   0  0  0  0  0  0  0  0  0  0  0  0
   -1.6472   -2.0667   -0.6145 H   0  0  0  0  0  0  0  0  0  0  0  0
    0.1239   -2.2603   -0.7211 H   0  0  0  0  0  0  0  0  0  0  0  0
  1  2  1  0
  1 16  1  0
  1 17  1  0
  1 18  1  0
  2  3  1  0
  2  9  1  0
  3  4  2  0
  3  6  1  0
  4  5  1  0
  6  7  1  0
  6  8  1  0
  9 10  1  0
  9 11  1  0
  9 12  1  0
 12 13  2  0
 12 14  1  0
 14 15  1  0
M  END
$$$$

     RDKit          3D

 18 17  0  0  0  0  0  0  0  0999 V2000
    2.0801    1.5055   -0.0198 C   0  0  0  0  0  0  0  0  0  0  0  0
    0.9188    0.6543   -0.0453 N   0  0  0  0  0  0  0  0  0  0  0  0
    0.9744   -0.6907    0.0720 C   0  0  0  0  0  0  0  0  0  0  0  0
   -0.1521   -1.2640    0.2885 N   0  0  0  0  0  0  0  0  0  0  0  0
   -0.2128   -2.2681    0.3231 H   0  0  0  0  0  0  0  0  0  0  0  0
    2.1881   -1.3212   -0.0112 N   0  0  0  0  0  0  0  0  0  0  0  0
    2.9465   -0.8375   -0.4612 H   0  0  0  0  0  0  0  0  0  0  0  0
    2.1621   -2.3154   -0.1676 H   0  0  0  0  0  0  0  0  0  0  0  0
   -0.3770    1.2007    0.2901 C   0  0  0  0  0  0  0  0  0  0  0  0
   -0.5915    2.0566   -0.3536 H   0  0  0  0  0  0  0  0  0  0  0  0
   -0.4266    1.5019    1.3425 H   0  0  0  0  0  0  0  0  0  0  0  0
   -1.4732    0.1404    0.0566 C   0  0  0  0  0  0  0  0  0  0  0  0
   -2.3742   -0.0644    0.8409 O   0  0  0  0  0  0  0  0  0  0  0  0
   -1.6563   -0.0392   -1.2937 O   0  0  0  0  0  0  0  0  0  0  0  0
   -2.4499   -0.5788   -1.4113 H   0  0  0  0  0  0  0  0  0  0  0  0
    1.7486    2.5395   -0.0756 H   0  0  0  0  0  0  0  0  0  0  0  0
    2.6658    1.3758    0.8966 H   0  0  0  0  0  0  0  0  0  0  0  0
    2.7230    1.3121   -0.8829 H   0  0  0  0  0  0  0  0  0  0  0  0
  1  2  1  0
  1 16  1  0
  1 17  1  0
  1 18  1  0
  2  3  1  0
  2  9  1  0
  3  4  2  0
  3  6  1  0
  4  5  1  0
  6  7  1  0
  6  8  1  0
  9 10  1  0
  9 11  1  0
  9 12  1  0
 12 13  2  0
 12 14  1  0
 14 15  1  0
M  END
$$$$

     RDKit          3D

 18 17  0  0  0  0  0  0  0  0999 V2000
   -0.6964   -1.8143   -0.3942 C   0  0  0  0  0  0  0  0  0  0  0  0
   -0.6460   -0.3871   -0.6249 N   0  0  0  0  0  0  0  0  0  0  0  0
   -1.5359    0.4640   -0.0076 C   0  0  0  0  0  0  0  0  0  0  0  0
   -1.3056    1.7172   -0.0351 N   0  0  0  0  0  0  0  0  0  0  0  0
   -2.0328    2.2767    0.3958 H   0  0  0  0  0  0  0  0  0  0  0  0
   -2.6308   -0.1241    0.5950 N   0  0  0  0  0  0  0  0  0  0  0  0
   -2.9095   -1.0475    0.3131 H   0  0  0  0  0  0  0  0  0  0  0  0
   -3.3919    0.4984    0.8132 H   0  0  0  0  0  0  0  0  0  0  0  0
    0.6409    0.1768   -0.9416 C   0  0  0  0  0  0  0  0  0  0  0  0
    0.4835    1.2484   -1.1001 H   0  0  0  0  0  0  0  0  0  0  0  0
    1.0435   -0.2694   -1.8555 H   0  0  0  0  0  0  0  0  0  0  0  0
    1.6549    0.0200    0.1730 C   0  0  0  0  0  0  0  0  0  0  0  0
    1.4529   -0.4724    1.2485 O   0  0  0  0  0  0  0  0  0  0  0  0
    2.8526    0.4998   -0.1904 O   0  0  0  0  0  0  0  0  0  0  0  0
    3.4839    0.4206    0.5424 H   0  0  0  0  0  0  0  0  0  0  0  0
   -0.6553   -2.0658    0.6692 H   0  0  0  0  0  0  0  0  0  0  0  0
   -1.6011   -2.2417   -0.8353 H   0  0  0  0  0  0  0  0  0  0  0  0
    0.1590   -2.2708   -0.8876 H   0  0  0  0  0  0  0  0  0  0  0  0
  1  2  1  0
  1 16  1  0
  1 17  1  0
  1 18  1  0
  2  3  1  0
  2  9  1  0
  3  4  2  0
  3  6  1  0
  4  5  1  0
  6  7  1  0
  6  8  1  0
  9 10  1  0
  9 11  1  0
  9 12  1  0
 12 13  2  0
 12 14  1  0
 14 15  1  0
M  END
$$$$

     RDKit          3D

 18 17  0  0  0  0  0  0  0  0999 V2000
   -1.3931   -1.7569   -0.1963 C   0  0  0  0  0  0  0  0  0  0  0  0
   -0.8587   -0.6237    0.5355 N   0  0  0  0  0  0  0  0  0  0  0  0
   -1.1333    0.6569    0.0964 C   0  0  0  0  0  0  0  0  0  0  0  0
   -0.1779    1.4979    0.1083 N   0  0  0  0  0  0  0  0  0  0  0  0
   -0.4221    2.4433   -0.1602 H   0  0  0  0  0  0  0  0  0  0  0  0
   -2.4320    0.9114   -0.2920 N   0  0  0  0  0  0  0  0  0  0  0  0
   -3.1566    0.3368    0.1057 H   0  0  0  0  0  0  0  0  0  0  0  0
   -2.6737    1.8860   -0.3767 H   0  0  0  0  0  0  0  0  0  0  0  0
    0.5328   -0.7558    0.9309 C   0  0  0  0  0  0  0  0  0  0  0  0
    0.7690   -1.8117    1.0696 H   0  0  0  0  0  0  0  0  0  0  0  0
    0.6969   -0.2110    1.8622 H   0  0  0  0  0  0  0  0  0  0  0  0
    1.4512   -0.1611   -0.1313 C   0  0  0  0  0  0  0  0  0  0  0  0
    1.3652   -0.3842   -1.3122 O   0  0  0  0  0  0  0  0  0  0  0  0
    2.4787    0.5010    0.4114 O   0  0  0  0  0  0  0  0  0  0  0  0
    3.0304    0.8795   -0.2902 H   0  0  0  0  0  0  0  0  0  0  0  0
   -1.4190   -2.6219    0.4681 H   0  0  0  0  0  0  0  0  0  0  0  0
   -2.4028   -1.5465   -0.5380 H   0  0  0  0  0  0  0  0  0  0  0  0
   -0.7746   -1.9885   -1.0687 H   0  0  0  0  0  0  0  0  0  0  0  0
  1  2  1  0
  1 16  1  0
  1 17  1  0
  1 18  1  0
  2  3  1  0
  2  9  1  0
  3  4  2  0
  3  6  1  0
  4  5  1  0
  6  7  1  0
  6  8  1  0
  9 10  1  0
  9 11  1  0
  9 12  1  0
 12 13  2  0
 12 14  1  0
 14 15  1  0
M  END
$$$$

     RDKit          3D

 18 17  0  0  0  0  0  0  0  0999 V2000
   -0.5822   -1.8316    0.3839 C   0  0  0  0  0  0  0  0  0  0  0  0
   -0.5724   -0.3989    0.5307 N   0  0  0  0  0  0  0  0  0  0  0  0
   -1.5586    0.4053    0.0244 C   0  0  0  0  0  0  0  0  0  0  0  0
   -1.4645    1.6658    0.1859 N   0  0  0  0  0  0  0  0  0  0  0  0
   -2.2502    2.1903   -0.1803 H   0  0  0  0  0  0  0  0  0  0  0  0
   -2.6415   -0.2532   -0.5430 N   0  0  0  0  0  0  0  0  0  0  0  0
   -2.4527   -1.1076   -1.0412 H   0  0  0  0  0  0  0  0  0  0  0  0
   -3.2871    0.3545   -1.0238 H   0  0  0  0  0  0  0  0  0  0  0  0
    0.6502    0.2298    0.9467 C   0  0  0  0  0  0  0  0  0  0  0  0
    1.0043   -0.1775    1.8987 H   0  0  0  0  0  0  0  0  0  0  0  0
    0.4111    1.2925    1.0793 H   0  0  0  0  0  0  0  0  0  0  0  0
    1.7737    0.1400   -0.0648 C   0  0  0  0  0  0  0  0  0  0  0  0
    2.9384    0.2886    0.1906 O   0  0  0  0  0  0  0  0  0  0  0  0
    1.3369   -0.1182   -1.3046 O   0  0  0  0  0  0  0  0  0  0  0  0
    2.0825   -0.1178   -1.9251 H   0  0  0  0  0  0  0  0  0  0  0  0
   -0.3412   -2.1550   -0.6370 H   0  0  0  0  0  0  0  0  0  0  0  0
    0.1664   -2.2494    1.0558 H   0  0  0  0  0  0  0  0  0  0  0  0
   -1.5564   -2.2314    0.6689 H   0  0  0  0  0  0  0  0  0  0  0  0
  1  2  1  0
  1 16  1  0
  1 17  1  0
  1 18  1  0
  2  3  1  0
  2  9  1  0
  3  4  2  0
  3  6  1  0
  4  5  1  0
  6  7  1  0
  6  8  1  0
  9 10  1  0
  9 11  1  0
  9 12  1  0
 12 13  2  0
 12 14  1  0
 14 15  1  0
M  END
$$$$

     RDKit          3D

 18 17  0  0  0  0  0  0  0  0999 V2000
   -0.5734   -1.8425   -0.2464 C   0  0  0  0  0  0  0  0  0  0  0  0
   -0.5882   -0.4351   -0.5728 N   0  0  0  0  0  0  0  0  0  0  0  0
   -1.5415    0.4105   -0.0594 C   0  0  0  0  0  0  0  0  0  0  0  0
   -1.3805    1.6681   -0.1846 N   0  0  0  0  0  0  0  0  0  0  0  0
   -2.1485    2.2208    0.1781 H   0  0  0  0  0  0  0  0  0  0  0  0
   -2.6165   -0.1947    0.5695 N   0  0  0  0  0  0  0  0  0  0  0  0
   -2.8534   -1.1379    0.3129 H   0  0  0  0  0  0  0  0  0  0  0  0
   -3.4137    0.4041    0.7169 H   0  0  0  0  0  0  0  0  0  0  0  0
    0.6544    0.1635   -0.9839 C   0  0  0  0  0  0  0  0  0  0  0  0
    0.4299    1.2188   -1.1815 H   0  0  0  0  0  0  0  0  0  0  0  0
    1.0289   -0.3034   -1.8997 H   0  0  0  0  0  0  0  0  0  0  0  0
    1.7526    0.1329    0.0597 C   0  0  0  0  0  0  0  0  0  0  0  0
    2.9230    0.2647   -0.1821 O   0  0  0  0  0  0  0  0  0  0  0  0
    1.2886   -0.0527    1.2988 O   0  0  0  0  0  0  0  0  0  0  0  0
    2.0162   -0.0121    1.9390 H   0  0  0  0  0  0  0  0  0  0  0  0
   -0.6158   -2.0168    0.8329 H   0  0  0  0  0  0  0  0  0  0  0  0
   -1.4093   -2.3609   -0.7264 H   0  0  0  0  0  0  0  0  0  0  0  0
    0.3478   -2.2755   -0.6302 H   0  0  0  0  0  0  0  0  0  0  0  0
  1  2  1  0
  1 16  1  0
  1 17  1  0
  1 18  1  0
  2  3  1  0
  2  9  1  0
  3  4  2  0
  3  6  1  0
  4  5  1  0
  6  7  1  0
  6  8  1  0
  9 10  1  0
  9 11  1  0
  9 12  1  0
 12 13  2  0
 12 14  1  0
 14 15  1  0
M  END
$$$$

     RDKit          3D

 18 17  0  0  0  0  0  0  0  0999 V2000
   -0.7270   -1.9715    0.0368 C   0  0  0  0  0  0  0  0  0  0  0  0
   -0.6091   -0.5974   -0.3890 N   0  0  0  0  0  0  0  0  0  0  0  0
   -1.5178    0.3263    0.0569 C   0  0  0  0  0  0  0  0  0  0  0  0
   -2.5668   -0.0836    0.6512 N   0  0  0  0  0  0  0  0  0  0  0  0
   -3.2038    0.6575    0.9199 H   0  0  0  0  0  0  0  0  0  0  0  0
   -1.2493    1.6510   -0.2752 N   0  0  0  0  0  0  0  0  0  0  0  0
   -0.2898    1.9566   -0.2264 H   0  0  0  0  0  0  0  0  0  0  0  0
   -1.8892    2.3080    0.1456 H   0  0  0  0  0  0  0  0  0  0  0  0
    0.6133   -0.2404   -1.0674 C   0  0  0  0  0  0  0  0  0  0  0  0
    0.4581    0.6234   -1.7159 H   0  0  0  0  0  0  0  0  0  0  0  0
    0.9339   -1.0977   -1.6652 H   0  0  0  0  0  0  0  0  0  0  0  0
    1.6789    0.0528   -0.0205 C   0  0  0  0  0  0  0  0  0  0  0  0
    2.3344   -0.7733    0.5512 O   0  0  0  0  0  0  0  0  0  0  0  0
    1.7496    1.3619    0.2769 O   0  0  0  0  0  0  0  0  0  0  0  0
    2.3864    1.5157    0.9938 H   0  0  0  0  0  0  0  0  0  0  0  0
   -0.7602   -2.6295   -0.8343 H   0  0  0  0  0  0  0  0  0  0  0  0
    0.1187   -2.2572    0.6678 H   0  0  0  0  0  0  0  0  0  0  0  0
   -1.6537   -2.0580    0.5968 H   0  0  0  0  0  0  0  0  0  0  0  0
  1  2  1  0
  1 16  1  0
  1 17  1  0
  1 18  1  0
  2  3  1  0
  2  9  1  0
  3  4  2  0
  3  6  1  0
  4  5  1  0
  6  7  1  0
  6  8  1  0
  9 10  1  0
  9 11  1  0
  9 12  1  0
 12 13  2  0
 12 14  1  0
 14 15  1  0
M  END
$$$$

     RDKit          3D

 18 17  0  0  0  0  0  0  0  0999 V2000
   -0.7547   -1.9575    0.2972 C   0  0  0  0  0  0  0  0  0  0  0  0
   -0.5744   -0.5933   -0.1344 N   0  0  0  0  0  0  0  0  0  0  0  0
   -1.6135    0.2914   -0.0241 C   0  0  0  0  0  0  0  0  0  0  0  0
   -2.7413   -0.1225    0.3941 N   0  0  0  0  0  0  0  0  0  0  0  0
   -3.4405    0.6061    0.4843 H   0  0  0  0  0  0  0  0  0  0  0  0
   -1.3200    1.5936   -0.4288 N   0  0  0  0  0  0  0  0  0  0  0  0
   -0.4018    1.9282   -0.1765 H   0  0  0  0  0  0  0  0  0  0  0  0
   -2.0467    2.2559   -0.1986 H   0  0  0  0  0  0  0  0  0  0  0  0
    0.6034   -0.3172   -0.9157 C   0  0  0  0  0  0  0  0  0  0  0  0
    0.3999    0.4830   -1.6342 H   0  0  0  0  0  0  0  0  0  0  0  0
    0.8999   -1.2178   -1.4628 H   0  0  0  0  0  0  0  0  0  0  0  0
    1.7815    0.1010   -0.0435 C   0  0  0  0  0  0  0  0  0  0  0  0
    2.8366   -0.4650    0.0187 O   0  0  0  0  0  0  0  0  0  0  0  0
    1.5087    1.1992    0.6762 O   0  0  0  0  0  0  0  0  0  0  0  0
    2.2563    1.4218    1.2542 H   0  0  0  0  0  0  0  0  0  0  0  0
    0.0960   -2.2725    0.9051 H   0  0  0  0  0  0  0  0  0  0  0  0
   -1.6691   -1.9955    0.8823 H   0  0  0  0  0  0  0  0  0  0  0  0
   -0.8513   -2.6336   -0.5577 H   0  0  0  0  0  0  0  0  0  0  0  0
  1  2  1  0
  1 16  1  0
  1 17  1  0
  1 18  1  0
  2  3  1  0
  2  9  1  0
  3  4  2  0
  3  6  1  0
  4  5  1  0
  6  7  1  0
  6  8  1  0
  9 10  1  0
  9 11  1  0
  9 12  1  0
 12 13  2  0
 12 14  1  0
 14 15  1  0
M  END
$$$$

     RDKit          3D

 18 17  0  0  0  0  0  0  0  0999 V2000
   -0.7645   -1.9547    0.3098 C   0  0  0  0  0  0  0  0  0  0  0  0
   -0.5764   -0.5933   -0.1272 N   0  0  0  0  0  0  0  0  0  0  0  0
   -1.6144    0.2944   -0.0310 C   0  0  0  0  0  0  0  0  0  0  0  0
   -2.7469   -0.1137    0.3796 N   0  0  0  0  0  0  0  0  0  0  0  0
   -3.4446    0.6174    0.4607 H   0  0  0  0  0  0  0  0  0  0  0  0
   -1.3127    1.5937   -0.4400 N   0  0  0  0  0  0  0  0  0  0  0  0
   -0.3965    1.9259   -0.1772 H   0  0  0  0  0  0  0  0  0  0  0  0
   -2.0394    2.2594   -0.2195 H   0  0  0  0  0  0  0  0  0  0  0  0
    0.6043   -0.3265   -0.9067 C   0  0  0  0  0  0  0  0  0  0  0  0
    0.4045    0.4683   -1.6326 H   0  0  0  0  0  0  0  0  0  0  0  0
    0.9003   -1.2311   -1.4476 H   0  0  0  0  0  0  0  0  0  0  0  0
    1.7848    0.0989   -0.0415 C   0  0  0  0  0  0  0  0  0  0  0  0
    2.8565   -0.4379   -0.0154 O   0  0  0  0  0  0  0  0  0  0  0  0
    1.4960    1.1703    0.7113 O   0  0  0  0  0  0  0  0  0  0  0  0
    2.2481    1.3989    1.2810 H   0  0  0  0  0  0  0  0  0  0  0  0
   -1.6832   -1.9866    0.8887 H   0  0  0  0  0  0  0  0  0  0  0  0
   -0.8574   -2.6349   -0.5422 H   0  0  0  0  0  0  0  0  0  0  0  0
    0.0808   -2.2692    0.9253 H   0  0  0  0  0  0  0  0  0  0  0  0
  1  2  1  0
  1 16  1  0
  1 17  1  0
  1 18  1  0
  2  3  1  0
  2  9  1  0
  3  4  2  0
  3  6  1  0
  4  5  1  0
  6  7  1  0
  6  8  1  0
  9 10  1  0
  9 11  1  0
  9 12  1  0
 12 13  2  0
 12 14  1  0
 14 15  1  0
M  END
$$$$

     RDKit          3D

 18 17  0  0  0  0  0  0  0  0999 V2000
   -1.3809   -1.7939   -0.0877 C   0  0  0  0  0  0  0  0  0  0  0  0
   -0.7790   -0.5581   -0.5369 N   0  0  0  0  0  0  0  0  0  0  0  0
   -1.2830    0.6157   -0.0264 C   0  0  0  0  0  0  0  0  0  0  0  0
   -2.3872    0.5958    0.6049 N   0  0  0  0  0  0  0  0  0  0  0  0
   -2.7072    1.5108    0.9018 H   0  0  0  0  0  0  0  0  0  0  0  0
   -0.5116    1.7503   -0.2330 N   0  0  0  0  0  0  0  0  0  0  0  0
    0.1219    1.7877   -1.0137 H   0  0  0  0  0  0  0  0  0  0  0  0
   -0.9878    2.6211   -0.0557 H   0  0  0  0  0  0  0  0  0  0  0  0
    0.5885   -0.6300   -0.9891 C   0  0  0  0  0  0  0  0  0  0  0  0
    0.7358   -0.0714   -1.9218 H   0  0  0  0  0  0  0  0  0  0  0  0
    0.8229   -1.6785   -1.1894 H   0  0  0  0  0  0  0  0  0  0  0  0
    1.5984   -0.1168    0.0328 C   0  0  0  0  0  0  0  0  0  0  0  0
    2.5142    0.6177   -0.2231 O   0  0  0  0  0  0  0  0  0  0  0  0
    1.3572   -0.5903    1.2536 O   0  0  0  0  0  0  0  0  0  0  0  0
    1.9822   -0.2208    1.8970 H   0  0  0  0  0  0  0  0  0  0  0  0
   -0.8353   -2.2222    0.7576 H   0  0  0  0  0  0  0  0  0  0  0  0
   -2.3944   -1.5616    0.2263 H   0  0  0  0  0  0  0  0  0  0  0  0
   -1.3987   -2.5079   -0.9122 H   0  0  0  0  0  0  0  0  0  0  0  0
  1  2  1  0
  1 16  1  0
  1 17  1  0
  1 18  1  0
  2  3  1  0
  2  9  1  0
  3  4  2  0
  3  6  1  0
  4  5  1  0
  6  7  1  0
  6  8  1  0
  9 10  1  0
  9 11  1  0
  9 12  1  0
 12 13  2  0
 12 14  1  0
 14 15  1  0
M  END
$$$$

     RDKit          3D

 18 17  0  0  0  0  0  0  0  0999 V2000
   -1.3277   -1.8088    0.1190 C   0  0  0  0  0  0  0  0  0  0  0  0
   -0.7940   -0.5382    0.5647 N   0  0  0  0  0  0  0  0  0  0  0  0
   -1.3217    0.5958   -0.0141 C   0  0  0  0  0  0  0  0  0  0  0  0
   -2.4170    0.5129   -0.6539 N   0  0  0  0  0  0  0  0  0  0  0  0
   -2.7604    1.4017   -1.0000 H   0  0  0  0  0  0  0  0  0  0  0  0
   -0.5929    1.7666    0.1506 N   0  0  0  0  0  0  0  0  0  0  0  0
    0.0211    1.8575    0.9426 H   0  0  0  0  0  0  0  0  0  0  0  0
   -1.1052    2.6089   -0.0615 H   0  0  0  0  0  0  0  0  0  0  0  0
    0.5808   -0.5582    1.0087 C   0  0  0  0  0  0  0  0  0  0  0  0
    0.8026   -1.5708    1.3551 H   0  0  0  0  0  0  0  0  0  0  0  0
    0.7444    0.1306    1.8437 H   0  0  0  0  0  0  0  0  0  0  0  0
    1.5490   -0.2174   -0.1177 C   0  0  0  0  0  0  0  0  0  0  0  0
    1.5743   -0.7468   -1.1926 O   0  0  0  0  0  0  0  0  0  0  0  0
    2.3813    0.7743    0.2274 O   0  0  0  0  0  0  0  0  0  0  0  0
    2.9733    0.9945   -0.5097 H   0  0  0  0  0  0  0  0  0  0  0  0
   -0.7472   -2.2154   -0.7129 H   0  0  0  0  0  0  0  0  0  0  0  0
   -1.3191   -2.5124    0.9523 H   0  0  0  0  0  0  0  0  0  0  0  0
   -2.3468   -1.6325   -0.2119 H   0  0  0  0  0  0  0  0  0  0  0  0
  1  2  1  0
  1 16  1  0
  1 17  1  0
  1 18  1  0
  2  3  1  0
  2  9  1  0
  3  4  2  0
  3  6  1  0
  4  5  1  0
  6  7  1  0
  6  8  1  0
  9 10  1  0
  9 11  1  0
  9 12  1  0
 12 13  2  0
 12 14  1  0
 14 15  1  0
M  END
$$$$
