
     RDKit          3D

 33 35  0  0  0  0  0  0  0  0999 V2000
    3.4172    1.7593    1.8842 C   0  0  0  0  0  0  0  0  0  0  0  0
    2.6853    1.5000    0.6564 N   0  0  0  0  0  0  0  0  0  0  0  0
    2.4908    2.5702   -0.1765 C   0  0  0  0  0  0  0  0  0  0  0  0
    2.8189    3.6906    0.1327 O   0  0  0  0  0  0  0  0  0  0  0  0
    1.8095    2.2299   -1.4951 C   0  0  0  0  0  0  0  0  0  0  0  0
    0.4385    1.9478   -1.2053 N   0  0  0  0  0  0  0  0  0  0  0  0
    0.1331    0.8617   -0.6135 C   0  0  0  0  0  0  0  0  0  0  0  0
   -1.2841    0.6154   -0.3168 C   0  0  0  0  0  0  0  0  0  0  0  0
   -1.6765   -0.2114    0.7348 C   0  0  0  0  0  0  0  0  0  0  0  0
   -3.0159   -0.4141    1.0074 C   0  0  0  0  0  0  0  0  0  0  0  0
   -3.9747    0.2125    0.2258 C   0  0  0  0  0  0  0  0  0  0  0  0
   -3.6038    1.0501   -0.8167 C   0  0  0  0  0  0  0  0  0  0  0  0
   -2.2643    1.2504   -1.0796 C   0  0  0  0  0  0  0  0  0  0  0  0
   -1.9498    1.9002   -1.8803 H   0  0  0  0  0  0  0  0  0  0  0  0
   -4.3603    1.5366   -1.4122 H   0  0  0  0  0  0  0  0  0  0  0  0
   -5.6483   -0.0485    0.5586 Cl  0  0  0  0  0  0  0  0  0  0  0  0
   -3.3180   -1.0523    1.8228 H   0  0  0  0  0  0  0  0  0  0  0  0
   -0.9329   -0.6883    1.3560 H   0  0  0  0  0  0  0  0  0  0  0  0
    1.1210   -0.1664   -0.2327 C   0  0  0  0  0  0  0  0  0  0  0  0
    0.8269   -1.5068   -0.4797 C   0  0  0  0  0  0  0  0  0  0  0  0
    1.7333   -2.4954   -0.1538 C   0  0  0  0  0  0  0  0  0  0  0  0
    2.9466   -2.1685    0.4379 C   0  0  0  0  0  0  0  0  0  0  0  0
    3.2450   -0.8463    0.6868 C   0  0  0  0  0  0  0  0  0  0  0  0
    2.3553    0.1767    0.3454 C   0  0  0  0  0  0  0  0  0  0  0  0
    4.1933   -0.5985    1.1357 H   0  0  0  0  0  0  0  0  0  0  0  0
    3.6497   -2.9446    0.6946 H   0  0  0  0  0  0  0  0  0  0  0  0
    1.3541   -4.1494   -0.4797 Cl  0  0  0  0  0  0  0  0  0  0  0  0
   -0.1145   -1.7643   -0.9399 H   0  0  0  0  0  0  0  0  0  0  0  0
    2.3325    1.3833   -1.9623 H   0  0  0  0  0  0  0  0  0  0  0  0
    1.8474    3.1061   -2.1445 H   0  0  0  0  0  0  0  0  0  0  0  0
    4.4956    1.6668    1.7372 H   0  0  0  0  0  0  0  0  0  0  0  0
    3.2027    2.7850    2.1826 H   0  0  0  0  0  0  0  0  0  0  0  0
    3.0884    1.0708    2.6599 H   0  0  0  0  0  0  0  0  0  0  0  0
  1  2  1  0
  1 31  1  0
  1 32  1  0
  1 33  1  0
  2  3  1  0
  2 24  1  0
  3  4  2  0
  3  5  1  0
  5  6  1  0
  5 29  1  0
  5 30  1  0
  6  7  2  0
  7  8  1  0
  7 19  1  0
  8  9  2  0
  8 13  1  0
  9 10  1  0
  9 18  1  0
 10 11  2  0
 10 17  1  0
 11 12  1  0
 11 16  1  0
 12 13  2  0
 12 15  1  0
 13 14  1  0
 19 20  2  0
 19 24  1  0
 20 21  1  0
 20 28  1  0
 21 22  2  0
 21 27  1  0
 22 23  1  0
 22 26  1  0
 23 24  2  0
 23 25  1  0
M  END
$$$$
