
     RDKit          3D

 37 40  0  0  0  0  0  0  0  0999 V2000
   -2.9173   -2.3364    1.5664 O   0  0  0  0  0  0  0  0  0  0  0  0
   -1.9560   -1.7162    1.1726 C   0  0  0  0  0  0  0  0  0  0  0  0
   -0.6564   -2.1267    1.4719 N   0  0  0  0  0  0  0  0  0  0  0  0
    0.3571   -1.4577    1.1057 C   0  0  0  0  0  0  0  0  0  0  0  0
    0.3154   -0.2975    0.3877 N   0  0  0  0  0  0  0  0  0  0  0  0
    1.4803    0.2979    0.0933 N   0  0  0  0  0  0  0  0  0  0  0  0
    1.4660    1.3762   -0.6166 C   0  0  0  0  0  0  0  0  0  0  0  0
    0.2606    1.9783   -1.1129 C   0  0  0  0  0  0  0  0  0  0  0  0
   -0.9099    1.3829   -0.8102 C   0  0  0  0  0  0  0  0  0  0  0  0
   -0.9248    0.1914   -0.0047 C   0  0  0  0  0  0  0  0  0  0  0  0
   -2.0505   -0.4835    0.3704 C   0  0  0  0  0  0  0  0  0  0  0  0
   -3.4017   -0.0055    0.0408 C   0  0  0  0  0  0  0  0  0  0  0  0
   -3.9295    1.1509    0.6142 C   0  0  0  0  0  0  0  0  0  0  0  0
   -5.2347    1.5459    0.3804 C   0  0  0  0  0  0  0  0  0  0  0  0
   -6.0404    0.7728   -0.4382 C   0  0  0  0  0  0  0  0  0  0  0  0
   -5.5458   -0.3766   -1.0280 C   0  0  0  0  0  0  0  0  0  0  0  0
   -4.2364   -0.7579   -0.7863 C   0  0  0  0  0  0  0  0  0  0  0  0
   -3.5989   -2.1632   -1.5485 Cl  0  0  0  0  0  0  0  0  0  0  0  0
   -6.1665   -0.9803   -1.6702 H   0  0  0  0  0  0  0  0  0  0  0  0
   -7.0617    1.0705   -0.6166 H   0  0  0  0  0  0  0  0  0  0  0  0
   -5.6138    2.4431    0.8430 H   0  0  0  0  0  0  0  0  0  0  0  0
   -2.9293    2.1073    1.6545 Cl  0  0  0  0  0  0  0  0  0  0  0  0
   -1.8560    1.7637   -1.1597 H   0  0  0  0  0  0  0  0  0  0  0  0
    0.3288    2.8687   -1.7153 H   0  0  0  0  0  0  0  0  0  0  0  0
    2.9879    2.1500   -0.9944 S   0  0  0  0  0  0  0  0  0  0  0  0
    4.1332    0.9319   -0.3821 C   0  0  0  0  0  0  0  0  0  0  0  0
    5.0686    1.2863    0.5784 C   0  0  0  0  0  0  0  0  0  0  0  0
    5.9792    0.3578    1.0482 C   0  0  0  0  0  0  0  0  0  0  0  0
    5.9360   -0.9318    0.5465 C   0  0  0  0  0  0  0  0  0  0  0  0
    5.0196   -1.3154   -0.4178 C   0  0  0  0  0  0  0  0  0  0  0  0
    4.1291   -0.3663   -0.8812 C   0  0  0  0  0  0  0  0  0  0  0  0
    3.2540   -0.7172   -1.8336 F   0  0  0  0  0  0  0  0  0  0  0  0
    5.0031   -2.3210   -0.8055 H   0  0  0  0  0  0  0  0  0  0  0  0
    6.8098   -1.8407    1.0008 F   0  0  0  0  0  0  0  0  0  0  0  0
    6.7108    0.6198    1.7950 H   0  0  0  0  0  0  0  0  0  0  0  0
    5.0771    2.2965    0.9555 H   0  0  0  0  0  0  0  0  0  0  0  0
    1.3537   -1.7946    1.3625 H   0  0  0  0  0  0  0  0  0  0  0  0
  1  2  2  0
  2  3  1  0
  2 11  1  0
  3  4  2  0
  4  5  1  0
  4 37  1  0
  5  6  1  0
  5 10  1  0
  6  7  2  0
  7  8  1  0
  7 25  1  0
  8  9  2  0
  8 24  1  0
  9 10  1  0
  9 23  1  0
 10 11  2  0
 11 12  1  0
 12 13  2  0
 12 17  1  0
 13 14  1  0
 13 22  1  0
 14 15  2  0
 14 21  1  0
 15 16  1  0
 15 20  1  0
 16 17  2  0
 16 19  1  0
 17 18  1  0
 25 26  1  0
 26 27  2  0
 26 31  1  0
 27 28  1  0
 27 36  1  0
 28 29  2  0
 28 35  1  0
 29 30  1  0
 29 34  1  0
 30 31  2  0
 30 33  1  0
 31 32  1  0
M  END
$$$$

     RDKit          3D

 37 40  0  0  0  0  0  0  0  0999 V2000
   -3.0891   -2.6375   -0.9030 O   0  0  0  0  0  0  0  0  0  0  0  0
   -2.1069   -1.9780   -0.6509 C   0  0  0  0  0  0  0  0  0  0  0  0
   -0.8226   -2.4991   -0.8131 N   0  0  0  0  0  0  0  0  0  0  0  0
    0.2145   -1.8018   -0.5956 C   0  0  0  0  0  0  0  0  0  0  0  0
    0.2142   -0.5020   -0.1783 N   0  0  0  0  0  0  0  0  0  0  0  0
    1.4021    0.1017   -0.0136 N   0  0  0  0  0  0  0  0  0  0  0  0
    1.4258    1.3276    0.3927 C   0  0  0  0  0  0  0  0  0  0  0  0
    0.2397    2.0756    0.7084 C   0  0  0  0  0  0  0  0  0  0  0  0
   -0.9515    1.4679    0.5430 C   0  0  0  0  0  0  0  0  0  0  0  0
   -1.0086    0.1167    0.0528 C   0  0  0  0  0  0  0  0  0  0  0  0
   -2.1578   -0.5837   -0.1753 C   0  0  0  0  0  0  0  0  0  0  0  0
   -3.4907    0.0156   -0.0115 C   0  0  0  0  0  0  0  0  0  0  0  0
   -4.3758   -0.4768    0.9482 C   0  0  0  0  0  0  0  0  0  0  0  0
   -5.6705    0.0048    1.0494 C   0  0  0  0  0  0  0  0  0  0  0  0
   -6.0990    0.9939    0.1822 C   0  0  0  0  0  0  0  0  0  0  0  0
   -5.2419    1.5099   -0.7749 C   0  0  0  0  0  0  0  0  0  0  0  0
   -3.9523    1.0171   -0.8650 C   0  0  0  0  0  0  0  0  0  0  0  0
   -2.8885    1.6484   -2.0759 Cl  0  0  0  0  0  0  0  0  0  0  0  0
   -5.5691    2.2811   -1.4537 H   0  0  0  0  0  0  0  0  0  0  0  0
   -7.1087    1.3670    0.2510 H   0  0  0  0  0  0  0  0  0  0  0  0
   -6.3314   -0.3976    1.7998 H   0  0  0  0  0  0  0  0  0  0  0  0
   -3.8196   -1.6770    2.0494 Cl  0  0  0  0  0  0  0  0  0  0  0  0
   -1.8839    1.9589    0.7706 H   0  0  0  0  0  0  0  0  0  0  0  0
    0.3391    3.0849    1.0714 H   0  0  0  0  0  0  0  0  0  0  0  0
    2.9645    2.1254    0.6086 S   0  0  0  0  0  0  0  0  0  0  0  0
    4.0863    0.8394    0.0956 C   0  0  0  0  0  0  0  0  0  0  0  0
    4.0404    0.3204   -1.1904 C   0  0  0  0  0  0  0  0  0  0  0  0
    4.9236   -0.6691   -1.5766 C   0  0  0  0  0  0  0  0  0  0  0  0
    5.8650   -1.1203   -0.6655 C   0  0  0  0  0  0  0  0  0  0  0  0
    5.9475   -0.6120    0.6184 C   0  0  0  0  0  0  0  0  0  0  0  0
    5.0455    0.3706    0.9846 C   0  0  0  0  0  0  0  0  0  0  0  0
    5.1060    0.8705    2.2256 F   0  0  0  0  0  0  0  0  0  0  0  0
    6.6863   -0.9692    1.3171 H   0  0  0  0  0  0  0  0  0  0  0  0
    6.7280   -2.0759   -1.0369 F   0  0  0  0  0  0  0  0  0  0  0  0
    4.8954   -1.0868   -2.5697 H   0  0  0  0  0  0  0  0  0  0  0  0
    3.3058    0.6917   -1.8861 H   0  0  0  0  0  0  0  0  0  0  0  0
    1.1992   -2.2286   -0.7405 H   0  0  0  0  0  0  0  0  0  0  0  0
  1  2  2  0
  2  3  1  0
  2 11  1  0
  3  4  2  0
  4  5  1  0
  4 37  1  0
  5  6  1  0
  5 10  1  0
  6  7  2  0
  7  8  1  0
  7 25  1  0
  8  9  2  0
  8 24  1  0
  9 10  1  0
  9 23  1  0
 10 11  2  0
 11 12  1  0
 12 13  2  0
 12 17  1  0
 13 14  1  0
 13 22  1  0
 14 15  2  0
 14 21  1  0
 15 16  1  0
 15 20  1  0
 16 17  2  0
 16 19  1  0
 17 18  1  0
 25 26  1  0
 26 27  2  0
 26 31  1  0
 27 28  1  0
 27 36  1  0
 28 29  2  0
 28 35  1  0
 29 30  1  0
 29 34  1  0
 30 31  2  0
 30 33  1  0
 31 32  1  0
M  END
$$$$

     RDKit          3D

 37 40  0  0  0  0  0  0  0  0999 V2000
   -4.4099   -1.2721    1.2233 O   0  0  0  0  0  0  0  0  0  0  0  0
   -3.2525   -1.4885    0.9469 C   0  0  0  0  0  0  0  0  0  0  0  0
   -2.6424   -2.6993    1.2798 N   0  0  0  0  0  0  0  0  0  0  0  0
   -1.4167   -2.9198    1.0436 C   0  0  0  0  0  0  0  0  0  0  0  0
   -0.5624   -2.0391    0.4399 N   0  0  0  0  0  0  0  0  0  0  0  0
    0.7142   -2.4056    0.2910 N   0  0  0  0  0  0  0  0  0  0  0  0
    1.5367   -1.5992   -0.2891 C   0  0  0  0  0  0  0  0  0  0  0  0
    1.1393   -0.3291   -0.8282 C   0  0  0  0  0  0  0  0  0  0  0  0
   -0.1462    0.0449   -0.6699 C   0  0  0  0  0  0  0  0  0  0  0  0
   -1.0680   -0.8120    0.0241 C   0  0  0  0  0  0  0  0  0  0  0  0
   -2.3794   -0.5183    0.2619 C   0  0  0  0  0  0  0  0  0  0  0  0
   -2.9751    0.7764   -0.1000 C   0  0  0  0  0  0  0  0  0  0  0  0
   -2.5957    1.9607    0.5320 C   0  0  0  0  0  0  0  0  0  0  0  0
   -3.2305    3.1606    0.2630 C   0  0  0  0  0  0  0  0  0  0  0  0
   -4.2695    3.1890   -0.6515 C   0  0  0  0  0  0  0  0  0  0  0  0
   -4.6632    2.0342   -1.3036 C   0  0  0  0  0  0  0  0  0  0  0  0
   -4.0174    0.8409   -1.0258 C   0  0  0  0  0  0  0  0  0  0  0  0
   -4.4693   -0.5915   -1.8668 Cl  0  0  0  0  0  0  0  0  0  0  0  0
   -5.4668    2.0504   -2.0219 H   0  0  0  0  0  0  0  0  0  0  0  0
   -4.7744    4.1197   -0.8572 H   0  0  0  0  0  0  0  0  0  0  0  0
   -2.9174    4.0573    0.7733 H   0  0  0  0  0  0  0  0  0  0  0  0
   -1.3083    1.9254    1.6896 Cl  0  0  0  0  0  0  0  0  0  0  0  0
   -0.5241    0.9742   -1.0652 H   0  0  0  0  0  0  0  0  0  0  0  0
    1.8547    0.2781   -1.3590 H   0  0  0  0  0  0  0  0  0  0  0  0
    3.1722   -2.2153   -0.4904 S   0  0  0  0  0  0  0  0  0  0  0  0
    4.1212   -0.7114   -0.4030 C   0  0  0  0  0  0  0  0  0  0  0  0
    5.1823   -0.5309   -1.2838 C   0  0  0  0  0  0  0  0  0  0  0  0
    5.9836    0.5922   -1.2093 C   0  0  0  0  0  0  0  0  0  0  0  0
    5.7113    1.5448   -0.2415 C   0  0  0  0  0  0  0  0  0  0  0  0
    4.6695    1.3963    0.6577 C   0  0  0  0  0  0  0  0  0  0  0  0
    3.8932    0.2566    0.5729 C   0  0  0  0  0  0  0  0  0  0  0  0
    2.8930    0.1013    1.4571 F   0  0  0  0  0  0  0  0  0  0  0  0
    4.4720    2.1371    1.4152 H   0  0  0  0  0  0  0  0  0  0  0  0
    6.4756    2.6435   -0.1673 F   0  0  0  0  0  0  0  0  0  0  0  0
    6.8071    0.7374   -1.8891 H   0  0  0  0  0  0  0  0  0  0  0  0
    5.3713   -1.2869   -2.0289 H   0  0  0  0  0  0  0  0  0  0  0  0
   -0.9665   -3.8628    1.3269 H   0  0  0  0  0  0  0  0  0  0  0  0
  1  2  2  0
  2  3  1  0
  2 11  1  0
  3  4  2  0
  4  5  1  0
  4 37  1  0
  5  6  1  0
  5 10  1  0
  6  7  2  0
  7  8  1  0
  7 25  1  0
  8  9  2  0
  8 24  1  0
  9 10  1  0
  9 23  1  0
 10 11  2  0
 11 12  1  0
 12 13  2  0
 12 17  1  0
 13 14  1  0
 13 22  1  0
 14 15  2  0
 14 21  1  0
 15 16  1  0
 15 20  1  0
 16 17  2  0
 16 19  1  0
 17 18  1  0
 25 26  1  0
 26 27  2  0
 26 31  1  0
 27 28  1  0
 27 36  1  0
 28 29  2  0
 28 35  1  0
 29 30  1  0
 29 34  1  0
 30 31  2  0
 30 33  1  0
 31 32  1  0
M  END
$$$$

     RDKit          3D

 37 40  0  0  0  0  0  0  0  0999 V2000
   -4.4358   -1.6261   -0.6715 O   0  0  0  0  0  0  0  0  0  0  0  0
   -3.2389   -1.7202   -0.5247 C   0  0  0  0  0  0  0  0  0  0  0  0
   -2.5754   -2.9298   -0.7369 N   0  0  0  0  0  0  0  0  0  0  0  0
   -1.3294   -3.0543   -0.5396 C   0  0  0  0  0  0  0  0  0  0  0  0
   -0.4965   -2.0538   -0.1210 N   0  0  0  0  0  0  0  0  0  0  0  0
    0.7969   -2.3447    0.0465 N   0  0  0  0  0  0  0  0  0  0  0  0
    1.6081   -1.4155    0.4236 C   0  0  0  0  0  0  0  0  0  0  0  0
    1.1918   -0.0629    0.6651 C   0  0  0  0  0  0  0  0  0  0  0  0
   -0.1110    0.2337    0.4856 C   0  0  0  0  0  0  0  0  0  0  0  0
   -1.0381   -0.7896    0.0869 C   0  0  0  0  0  0  0  0  0  0  0  0
   -2.3768   -0.6023   -0.1009 C   0  0  0  0  0  0  0  0  0  0  0  0
   -3.0373    0.6882    0.1484 C   0  0  0  0  0  0  0  0  0  0  0  0
   -3.1744    1.2043    1.4365 C   0  0  0  0  0  0  0  0  0  0  0  0
   -3.8849    2.3663    1.6806 C   0  0  0  0  0  0  0  0  0  0  0  0
   -4.4800    3.0317    0.6223 C   0  0  0  0  0  0  0  0  0  0  0  0
   -4.3572    2.5503   -0.6688 C   0  0  0  0  0  0  0  0  0  0  0  0
   -3.6411    1.3870   -0.8976 C   0  0  0  0  0  0  0  0  0  0  0  0
   -3.4490    0.8013   -2.5046 Cl  0  0  0  0  0  0  0  0  0  0  0  0
   -4.8142    3.0662   -1.4977 H   0  0  0  0  0  0  0  0  0  0  0  0
   -5.0433    3.9327    0.8076 H   0  0  0  0  0  0  0  0  0  0  0  0
   -3.9767    2.7359    2.6893 H   0  0  0  0  0  0  0  0  0  0  0  0
   -2.4490    0.3612    2.7636 Cl  0  0  0  0  0  0  0  0  0  0  0  0
   -0.4968    1.2285    0.6407 H   0  0  0  0  0  0  0  0  0  0  0  0
    1.9105    0.6736    0.9864 H   0  0  0  0  0  0  0  0  0  0  0  0
    3.2588   -1.9480    0.7174 S   0  0  0  0  0  0  0  0  0  0  0  0
    4.1884   -0.4895    0.2958 C   0  0  0  0  0  0  0  0  0  0  0  0
    5.2613   -0.1198    1.1000 C   0  0  0  0  0  0  0  0  0  0  0  0
    6.0535    0.9640    0.7734 C   0  0  0  0  0  0  0  0  0  0  0  0
    5.7606    1.6851   -0.3722 C   0  0  0  0  0  0  0  0  0  0  0  0
    4.7061    1.3434   -1.2013 C   0  0  0  0  0  0  0  0  0  0  0  0
    3.9389    0.2460   -0.8607 C   0  0  0  0  0  0  0  0  0  0  0  0
    2.9239   -0.0970   -1.6733 F   0  0  0  0  0  0  0  0  0  0  0  0
    4.4927    1.9034   -2.0970 H   0  0  0  0  0  0  0  0  0  0  0  0
    6.5164    2.7445   -0.6937 F   0  0  0  0  0  0  0  0  0  0  0  0
    6.8857    1.2551    1.3931 H   0  0  0  0  0  0  0  0  0  0  0  0
    5.4668   -0.6974    1.9869 H   0  0  0  0  0  0  0  0  0  0  0  0
   -0.8428   -4.0076   -0.7026 H   0  0  0  0  0  0  0  0  0  0  0  0
  1  2  2  0
  2  3  1  0
  2 11  1  0
  3  4  2  0
  4  5  1  0
  4 37  1  0
  5  6  1  0
  5 10  1  0
  6  7  2  0
  7  8  1  0
  7 25  1  0
  8  9  2  0
  8 24  1  0
  9 10  1  0
  9 23  1  0
 10 11  2  0
 11 12  1  0
 12 13  2  0
 12 17  1  0
 13 14  1  0
 13 22  1  0
 14 15  2  0
 14 21  1  0
 15 16  1  0
 15 20  1  0
 16 17  2  0
 16 19  1  0
 17 18  1  0
 25 26  1  0
 26 27  2  0
 26 31  1  0
 27 28  1  0
 27 36  1  0
 28 29  2  0
 28 35  1  0
 29 30  1  0
 29 34  1  0
 30 31  2  0
 30 33  1  0
 31 32  1  0
M  END
$$$$

     RDKit          3D

 37 40  0  0  0  0  0  0  0  0999 V2000
    4.5374    1.3027   -1.2051 O   0  0  0  0  0  0  0  0  0  0  0  0
    3.3653    1.4974   -0.9805 C   0  0  0  0  0  0  0  0  0  0  0  0
    2.7370    2.6786   -1.3789 N   0  0  0  0  0  0  0  0  0  0  0  0
    1.4944    2.8664   -1.2139 C   0  0  0  0  0  0  0  0  0  0  0  0
    0.6366    1.9752   -0.6304 N   0  0  0  0  0  0  0  0  0  0  0  0
   -0.6605    2.2961   -0.5738 N   0  0  0  0  0  0  0  0  0  0  0  0
   -1.4892    1.4826   -0.0086 C   0  0  0  0  0  0  0  0  0  0  0  0
   -1.0746    0.2537    0.6106 C   0  0  0  0  0  0  0  0  0  0  0  0
    0.2320   -0.0726    0.5485 C   0  0  0  0  0  0  0  0  0  0  0  0
    1.1606    0.7854   -0.1360 C   0  0  0  0  0  0  0  0  0  0  0  0
    2.4907    0.5267   -0.2971 C   0  0  0  0  0  0  0  0  0  0  0  0
    3.1046   -0.7354    0.1399 C   0  0  0  0  0  0  0  0  0  0  0  0
    4.1135   -0.7367    1.1044 C   0  0  0  0  0  0  0  0  0  0  0  0
    4.7762   -1.9021    1.4527 C   0  0  0  0  0  0  0  0  0  0  0  0
    4.4344   -3.0917    0.8349 C   0  0  0  0  0  0  0  0  0  0  0  0
    3.4295   -3.1260   -0.1171 C   0  0  0  0  0  0  0  0  0  0  0  0
    2.7782   -1.9536   -0.4559 C   0  0  0  0  0  0  0  0  0  0  0  0
    1.5364   -1.9982   -1.6614 Cl  0  0  0  0  0  0  0  0  0  0  0  0
    3.1567   -4.0501   -0.6014 H   0  0  0  0  0  0  0  0  0  0  0  0
    4.9529   -4.0006    1.0963 H   0  0  0  0  0  0  0  0  0  0  0  0
    5.5531   -1.8698    2.1993 H   0  0  0  0  0  0  0  0  0  0  0  0
    4.5005    0.7384    1.9020 Cl  0  0  0  0  0  0  0  0  0  0  0  0
    0.6214   -0.9626    1.0164 H   0  0  0  0  0  0  0  0  0  0  0  0
   -1.7948   -0.3545    1.1324 H   0  0  0  0  0  0  0  0  0  0  0  0
   -3.1478    2.0547    0.0781 S   0  0  0  0  0  0  0  0  0  0  0  0
   -4.0366    0.5147    0.0172 C   0  0  0  0  0  0  0  0  0  0  0  0
   -3.6756   -0.5120   -0.8489 C   0  0  0  0  0  0  0  0  0  0  0  0
   -4.4107   -1.6807   -0.9027 C   0  0  0  0  0  0  0  0  0  0  0  0
   -5.5306   -1.8077   -0.0976 C   0  0  0  0  0  0  0  0  0  0  0  0
   -5.9337   -0.7986    0.7597 C   0  0  0  0  0  0  0  0  0  0  0  0
   -5.1751    0.3558    0.8042 C   0  0  0  0  0  0  0  0  0  0  0  0
   -5.5459    1.3389    1.6349 F   0  0  0  0  0  0  0  0  0  0  0  0
   -6.8100   -0.9048    1.3779 H   0  0  0  0  0  0  0  0  0  0  0  0
   -6.2501   -2.9377   -0.1494 F   0  0  0  0  0  0  0  0  0  0  0  0
   -4.1317   -2.4828   -1.5663 H   0  0  0  0  0  0  0  0  0  0  0  0
   -2.8121   -0.3938   -1.4851 H   0  0  0  0  0  0  0  0  0  0  0  0
    1.0309    3.7853   -1.5498 H   0  0  0  0  0  0  0  0  0  0  0  0
  1  2  2  0
  2  3  1  0
  2 11  1  0
  3  4  2  0
  4  5  1  0
  4 37  1  0
  5  6  1  0
  5 10  1  0
  6  7  2  0
  7  8  1  0
  7 25  1  0
  8  9  2  0
  8 24  1  0
  9 10  1  0
  9 23  1  0
 10 11  2  0
 11 12  1  0
 12 13  2  0
 12 17  1  0
 13 14  1  0
 13 22  1  0
 14 15  2  0
 14 21  1  0
 15 16  1  0
 15 20  1  0
 16 17  2  0
 16 19  1  0
 17 18  1  0
 25 26  1  0
 26 27  2  0
 26 31  1  0
 27 28  1  0
 27 36  1  0
 28 29  2  0
 28 35  1  0
 29 30  1  0
 29 34  1  0
 30 31  2  0
 30 33  1  0
 31 32  1  0
M  END
$$$$

     RDKit          3D

 37 40  0  0  0  0  0  0  0  0999 V2000
   -4.5564   -1.6283    0.6815 O   0  0  0  0  0  0  0  0  0  0  0  0
   -3.3530   -1.7122    0.5980 C   0  0  0  0  0  0  0  0  0  0  0  0
   -2.6845   -2.8965    0.9126 N   0  0  0  0  0  0  0  0  0  0  0  0
   -1.4273   -3.0085    0.7957 C   0  0  0  0  0  0  0  0  0  0  0  0
   -0.5861   -2.0157    0.3749 N   0  0  0  0  0  0  0  0  0  0  0  0
    0.7218   -2.2875    0.3101 N   0  0  0  0  0  0  0  0  0  0  0  0
    1.5421   -1.3662   -0.0728 C   0  0  0  0  0  0  0  0  0  0  0  0
    1.1151   -0.0400   -0.4252 C   0  0  0  0  0  0  0  0  0  0  0  0
   -0.2028    0.2362   -0.3548 C   0  0  0  0  0  0  0  0  0  0  0  0
   -1.1358   -0.7786    0.0537 C   0  0  0  0  0  0  0  0  0  0  0  0
   -2.4855   -0.6063    0.1521 C   0  0  0  0  0  0  0  0  0  0  0  0
   -3.1510    0.6544   -0.2104 C   0  0  0  0  0  0  0  0  0  0  0  0
   -3.8132    1.4068    0.7600 C   0  0  0  0  0  0  0  0  0  0  0  0
   -4.5353    2.5402    0.4259 C   0  0  0  0  0  0  0  0  0  0  0  0
   -4.6042    2.9370   -0.8977 C   0  0  0  0  0  0  0  0  0  0  0  0
   -3.9495    2.2177   -1.8829 C   0  0  0  0  0  0  0  0  0  0  0  0
   -3.2338    1.0860   -1.5338 C   0  0  0  0  0  0  0  0  0  0  0  0
   -2.4315    0.1749   -2.7682 Cl  0  0  0  0  0  0  0  0  0  0  0  0
   -3.9986    2.5224   -2.9160 H   0  0  0  0  0  0  0  0  0  0  0  0
   -5.1721    3.8141   -1.1655 H   0  0  0  0  0  0  0  0  0  0  0  0
   -5.0389    3.0987    1.1983 H   0  0  0  0  0  0  0  0  0  0  0  0
   -3.6864    0.9259    2.4083 Cl  0  0  0  0  0  0  0  0  0  0  0  0
   -0.5969    1.2076   -0.6069 H   0  0  0  0  0  0  0  0  0  0  0  0
    1.8381    0.6897   -0.7501 H   0  0  0  0  0  0  0  0  0  0  0  0
    3.2098   -1.8922   -0.2421 S   0  0  0  0  0  0  0  0  0  0  0  0
    4.0860   -0.3882    0.1271 C   0  0  0  0  0  0  0  0  0  0  0  0
    3.7224    0.4349    1.1876 C   0  0  0  0  0  0  0  0  0  0  0  0
    4.4481    1.5744    1.4774 C   0  0  0  0  0  0  0  0  0  0  0  0
    5.5616    1.8747    0.7101 C   0  0  0  0  0  0  0  0  0  0  0  0
    5.9674    1.0673   -0.3382 C   0  0  0  0  0  0  0  0  0  0  0  0
    5.2181   -0.0606   -0.6155 C   0  0  0  0  0  0  0  0  0  0  0  0
    5.5923   -0.8485   -1.6315 F   0  0  0  0  0  0  0  0  0  0  0  0
    6.8388    1.3066   -0.9253 H   0  0  0  0  0  0  0  0  0  0  0  0
    6.2717    2.9768    0.9900 F   0  0  0  0  0  0  0  0  0  0  0  0
    4.1679    2.2203    2.2934 H   0  0  0  0  0  0  0  0  0  0  0  0
    2.8644    0.1784    1.7896 H   0  0  0  0  0  0  0  0  0  0  0  0
   -0.9366   -3.9424    1.0386 H   0  0  0  0  0  0  0  0  0  0  0  0
  1  2  2  0
  2  3  1  0
  2 11  1  0
  3  4  2  0
  4  5  1  0
  4 37  1  0
  5  6  1  0
  5 10  1  0
  6  7  2  0
  7  8  1  0
  7 25  1  0
  8  9  2  0
  8 24  1  0
  9 10  1  0
  9 23  1  0
 10 11  2  0
 11 12  1  0
 12 13  2  0
 12 17  1  0
 13 14  1  0
 13 22  1  0
 14 15  2  0
 14 21  1  0
 15 16  1  0
 15 20  1  0
 16 17  2  0
 16 19  1  0
 17 18  1  0
 25 26  1  0
 26 27  2  0
 26 31  1  0
 27 28  1  0
 27 36  1  0
 28 29  2  0
 28 35  1  0
 29 30  1  0
 29 34  1  0
 30 31  2  0
 30 33  1  0
 31 32  1  0
M  END
$$$$

     RDKit          3D

 37 40  0  0  0  0  0  0  0  0999 V2000
   -4.5399   -1.4079   -1.1164 O   0  0  0  0  0  0  0  0  0  0  0  0
   -3.3485   -1.5497   -0.9670 C   0  0  0  0  0  0  0  0  0  0  0  0
   -2.6854   -2.6876   -1.4313 N   0  0  0  0  0  0  0  0  0  0  0  0
   -1.4348   -2.8405   -1.2910 C   0  0  0  0  0  0  0  0  0  0  0  0
   -0.5964   -1.9434   -0.6886 N   0  0  0  0  0  0  0  0  0  0  0  0
    0.7082   -2.2326   -0.6406 N   0  0  0  0  0  0  0  0  0  0  0  0
    1.5203   -1.4027   -0.0752 C   0  0  0  0  0  0  0  0  0  0  0  0
    1.0851   -0.1711    0.5264 C   0  0  0  0  0  0  0  0  0  0  0  0
   -0.2290    0.1243    0.4733 C   0  0  0  0  0  0  0  0  0  0  0  0
   -1.1473   -0.7748   -0.1715 C   0  0  0  0  0  0  0  0  0  0  0  0
   -2.4869   -0.5617   -0.2952 C   0  0  0  0  0  0  0  0  0  0  0  0
   -3.1410    0.6547    0.2225 C   0  0  0  0  0  0  0  0  0  0  0  0
   -3.6524    0.7012    1.5169 C   0  0  0  0  0  0  0  0  0  0  0  0
   -4.3474    1.8064    1.9778 C   0  0  0  0  0  0  0  0  0  0  0  0
   -4.5416    2.8854    1.1328 C   0  0  0  0  0  0  0  0  0  0  0  0
   -4.0396    2.8715   -0.1570 C   0  0  0  0  0  0  0  0  0  0  0  0
   -3.3467    1.7584   -0.6011 C   0  0  0  0  0  0  0  0  0  0  0  0
   -2.7019    1.7220   -2.2017 Cl  0  0  0  0  0  0  0  0  0  0  0  0
   -4.1879    3.7098   -0.8185 H   0  0  0  0  0  0  0  0  0  0  0  0
   -5.0920    3.7448    1.4822 H   0  0  0  0  0  0  0  0  0  0  0  0
   -4.7361    1.8135    2.9833 H   0  0  0  0  0  0  0  0  0  0  0  0
   -3.3925   -0.6533    2.5557 Cl  0  0  0  0  0  0  0  0  0  0  0  0
   -0.6363    1.0206    0.9141 H   0  0  0  0  0  0  0  0  0  0  0  0
    1.7991    0.4667    1.0207 H   0  0  0  0  0  0  0  0  0  0  0  0
    3.1862   -1.9524    0.0213 S   0  0  0  0  0  0  0  0  0  0  0  0
    4.0638   -0.4073   -0.0620 C   0  0  0  0  0  0  0  0  0  0  0  0
    3.6921    0.6086   -0.9362 C   0  0  0  0  0  0  0  0  0  0  0  0
    4.4219    1.7798   -1.0080 C   0  0  0  0  0  0  0  0  0  0  0  0
    5.5477    1.9198   -0.2134 C   0  0  0  0  0  0  0  0  0  0  0  0
    5.9618    0.9212    0.6510 C   0  0  0  0  0  0  0  0  0  0  0  0
    5.2081   -0.2354    0.7138 C   0  0  0  0  0  0  0  0  0  0  0  0
    5.5901   -1.2086    1.5509 F   0  0  0  0  0  0  0  0  0  0  0  0
    6.8431    1.0372    1.2603 H   0  0  0  0  0  0  0  0  0  0  0  0
    6.2620    3.0521   -0.2831 F   0  0  0  0  0  0  0  0  0  0  0  0
    4.1350    2.5737   -1.6780 H   0  0  0  0  0  0  0  0  0  0  0  0
    2.8252    0.4792   -1.5654 H   0  0  0  0  0  0  0  0  0  0  0  0
   -0.9479   -3.7322   -1.6649 H   0  0  0  0  0  0  0  0  0  0  0  0
  1  2  2  0
  2  3  1  0
  2 11  1  0
  3  4  2  0
  4  5  1  0
  4 37  1  0
  5  6  1  0
  5 10  1  0
  6  7  2  0
  7  8  1  0
  7 25  1  0
  8  9  2  0
  8 24  1  0
  9 10  1  0
  9 23  1  0
 10 11  2  0
 11 12  1  0
 12 13  2  0
 12 17  1  0
 13 14  1  0
 13 22  1  0
 14 15  2  0
 14 21  1  0
 15 16  1  0
 15 20  1  0
 16 17  2  0
 16 19  1  0
 17 18  1  0
 25 26  1  0
 26 27  2  0
 26 31  1  0
 27 28  1  0
 27 36  1  0
 28 29  2  0
 28 35  1  0
 29 30  1  0
 29 34  1  0
 30 31  2  0
 30 33  1  0
 31 32  1  0
M  END
$$$$
