
     RDKit          3D

 27 28  0  0  0  0  0  0  0  0999 V2000
   -0.6042   -2.5495   -0.0008 O   0  0  0  0  0  0  0  0  0  0  0  0
   -0.0349   -1.4802   -0.0012 C   0  0  0  0  0  0  0  0  0  0  0  0
   -0.5834   -0.2470   -0.0016 N   0  0  0  0  0  0  0  0  0  0  0  0
   -1.9341    0.0987   -0.0008 C   0  0  0  0  0  0  0  0  0  0  0  0
   -2.9629   -0.8386    0.0011 C   0  0  0  0  0  0  0  0  0  0  0  0
   -4.2787   -0.4127    0.0024 C   0  0  0  0  0  0  0  0  0  0  0  0
   -4.5868    0.9370    0.0018 C   0  0  0  0  0  0  0  0  0  0  0  0
   -3.5636    1.8708   -0.0001 C   0  0  0  0  0  0  0  0  0  0  0  0
   -2.2458    1.4578   -0.0014 C   0  0  0  0  0  0  0  0  0  0  0  0
   -1.4455    2.1845   -0.0027 H   0  0  0  0  0  0  0  0  0  0  0  0
   -3.7932    2.9265   -0.0004 H   0  0  0  0  0  0  0  0  0  0  0  0
   -5.6169    1.2607    0.0030 H   0  0  0  0  0  0  0  0  0  0  0  0
   -5.0713   -1.1464    0.0040 H   0  0  0  0  0  0  0  0  0  0  0  0
   -2.7245   -1.8890    0.0016 H   0  0  0  0  0  0  0  0  0  0  0  0
    0.0985    0.5196   -0.0023 H   0  0  0  0  0  0  0  0  0  0  0  0
    1.3699   -1.4792   -0.0014 N   0  0  0  0  0  0  0  0  0  0  0  0
    2.2840   -0.4560   -0.0005 C   0  0  0  0  0  0  0  0  0  0  0  0
    1.8515    0.8039   -0.0022 N   0  0  0  0  0  0  0  0  0  0  0  0
    2.7384    1.7883   -0.0014 C   0  0  0  0  0  0  0  0  0  0  0  0
    4.1030    1.5852    0.0012 C   0  0  0  0  0  0  0  0  0  0  0  0
    4.5638    0.2715    0.0031 C   0  0  0  0  0  0  0  0  0  0  0  0
    3.6545   -0.7624    0.0021 C   0  0  0  0  0  0  0  0  0  0  0  0
    3.9772   -1.7922    0.0034 H   0  0  0  0  0  0  0  0  0  0  0  0
    5.6236    0.0637    0.0052 H   0  0  0  0  0  0  0  0  0  0  0  0
    4.7869    2.4178    0.0018 H   0  0  0  0  0  0  0  0  0  0  0  0
    2.3135    2.7833   -0.0029 H   0  0  0  0  0  0  0  0  0  0  0  0
    1.7508   -2.4165   -0.0007 H   0  0  0  0  0  0  0  0  0  0  0  0
  1  2  2  0
  2  3  1  0
  2 16  1  0
  3  4  1  0
  3 15  1  0
  4  5  2  0
  4  9  1  0
  5  6  1  0
  5 14  1  0
  6  7  2  0
  6 13  1  0
  7  8  1  0
  7 12  1  0
  8  9  2  0
  8 11  1  0
  9 10  1  0
 16 17  1  0
 16 27  1  0
 17 18  2  0
 17 22  1  0
 18 19  1  0
 19 20  2  0
 19 26  1  0
 20 21  1  0
 20 25  1  0
 21 22  2  0
 21 24  1  0
 22 23  1  0
M  END
$$$$

     RDKit          3D

 27 28  0  0  0  0  0  0  0  0999 V2000
   -0.0018   -1.2780    0.0014 O   0  0  0  0  0  0  0  0  0  0  0  0
   -0.0017   -0.0694    0.0012 C   0  0  0  0  0  0  0  0  0  0  0  0
   -1.1274    0.7168    0.0009 N   0  0  0  0  0  0  0  0  0  0  0  0
   -2.4689    0.3181    0.0003 C   0  0  0  0  0  0  0  0  0  0  0  0
   -2.8671   -1.0147   -0.0027 C   0  0  0  0  0  0  0  0  0  0  0  0
   -4.2143   -1.3278   -0.0034 C   0  0  0  0  0  0  0  0  0  0  0  0
   -5.1751   -0.3313   -0.0013 C   0  0  0  0  0  0  0  0  0  0  0  0
   -4.7800    0.9959    0.0016 C   0  0  0  0  0  0  0  0  0  0  0  0
   -3.4374    1.3206    0.0024 C   0  0  0  0  0  0  0  0  0  0  0  0
   -3.1335    2.3590    0.0046 H   0  0  0  0  0  0  0  0  0  0  0  0
   -5.5192    1.7833    0.0033 H   0  0  0  0  0  0  0  0  0  0  0  0
   -6.2243   -0.5850   -0.0020 H   0  0  0  0  0  0  0  0  0  0  0  0
   -4.5135   -2.3653   -0.0058 H   0  0  0  0  0  0  0  0  0  0  0  0
   -2.1230   -1.7926   -0.0043 H   0  0  0  0  0  0  0  0  0  0  0  0
   -0.9972    1.7188    0.0019 H   0  0  0  0  0  0  0  0  0  0  0  0
    1.1466    0.6989    0.0009 N   0  0  0  0  0  0  0  0  0  0  0  0
    2.4692    0.2783    0.0003 C   0  0  0  0  0  0  0  0  0  0  0  0
    3.3306    1.2924   -0.0026 N   0  0  0  0  0  0  0  0  0  0  0  0
    4.6238    1.0188   -0.0031 C   0  0  0  0  0  0  0  0  0  0  0  0
    5.1290   -0.2693   -0.0010 C   0  0  0  0  0  0  0  0  0  0  0  0
    4.2240   -1.3229    0.0021 C   0  0  0  0  0  0  0  0  0  0  0  0
    2.8681   -1.0582    0.0028 C   0  0  0  0  0  0  0  0  0  0  0  0
    2.1323   -1.8433    0.0052 H   0  0  0  0  0  0  0  0  0  0  0  0
    4.5734   -2.3450    0.0039 H   0  0  0  0  0  0  0  0  0  0  0  0
    6.1929   -0.4448   -0.0017 H   0  0  0  0  0  0  0  0  0  0  0  0
    5.2766    1.8820   -0.0058 H   0  0  0  0  0  0  0  0  0  0  0  0
    1.0763    1.7080   -0.0007 H   0  0  0  0  0  0  0  0  0  0  0  0
  1  2  2  0
  2  3  1  0
  2 16  1  0
  3  4  1  0
  3 15  1  0
  4  5  2  0
  4  9  1  0
  5  6  1  0
  5 14  1  0
  6  7  2  0
  6 13  1  0
  7  8  1  0
  7 12  1  0
  8  9  2  0
  8 11  1  0
  9 10  1  0
 16 17  1  0
 16 27  1  0
 17 18  2  0
 17 22  1  0
 18 19  1  0
 19 20  2  0
 19 26  1  0
 20 21  1  0
 20 25  1  0
 21 22  2  0
 21 24  1  0
 22 23  1  0
M  END
$$$$

     RDKit          3D

 27 28  0  0  0  0  0  0  0  0999 V2000
   -0.6825   -2.5275   -0.1889 O   0  0  0  0  0  0  0  0  0  0  0  0
   -0.0559   -1.4988   -0.0596 C   0  0  0  0  0  0  0  0  0  0  0  0
    1.3202   -1.5257   -0.0312 N   0  0  0  0  0  0  0  0  0  0  0  0
    2.2608   -0.4908   -0.0485 C   0  0  0  0  0  0  0  0  0  0  0  0
    3.4485   -0.6591    0.6619 C   0  0  0  0  0  0  0  0  0  0  0  0
    4.4129    0.3298    0.6568 C   0  0  0  0  0  0  0  0  0  0  0  0
    4.2103    1.4993   -0.0576 C   0  0  0  0  0  0  0  0  0  0  0  0
    3.0444    1.6606   -0.7857 C   0  0  0  0  0  0  0  0  0  0  0  0
    2.0753    0.6731   -0.7929 C   0  0  0  0  0  0  0  0  0  0  0  0
    1.1939    0.7941   -1.4042 H   0  0  0  0  0  0  0  0  0  0  0  0
    2.8881    2.5580   -1.3652 H   0  0  0  0  0  0  0  0  0  0  0  0
    4.9620    2.2734   -0.0568 H   0  0  0  0  0  0  0  0  0  0  0  0
    5.3263    0.1872    1.2147 H   0  0  0  0  0  0  0  0  0  0  0  0
    3.6071   -1.5716    1.2182 H   0  0  0  0  0  0  0  0  0  0  0  0
    1.6909   -2.4610    0.0690 H   0  0  0  0  0  0  0  0  0  0  0  0
   -0.6061   -0.2552    0.1117 N   0  0  0  0  0  0  0  0  0  0  0  0
   -1.9447    0.1048    0.0927 C   0  0  0  0  0  0  0  0  0  0  0  0
   -2.1401    1.3890    0.3793 N   0  0  0  0  0  0  0  0  0  0  0  0
   -3.3785    1.8509    0.3795 C   0  0  0  0  0  0  0  0  0  0  0  0
   -4.4833    1.0678    0.0946 C   0  0  0  0  0  0  0  0  0  0  0  0
   -4.2715   -0.2717   -0.2060 C   0  0  0  0  0  0  0  0  0  0  0  0
   -2.9848   -0.7741   -0.2111 C   0  0  0  0  0  0  0  0  0  0  0  0
   -2.7736   -1.8058   -0.4332 H   0  0  0  0  0  0  0  0  0  0  0  0
   -5.1046   -0.9201   -0.4350 H   0  0  0  0  0  0  0  0  0  0  0  0
   -5.4760    1.4886    0.1069 H   0  0  0  0  0  0  0  0  0  0  0  0
   -3.4776    2.9013    0.6206 H   0  0  0  0  0  0  0  0  0  0  0  0
    0.0050    0.5122    0.3612 H   0  0  0  0  0  0  0  0  0  0  0  0
  1  2  2  0
  2  3  1  0
  2 16  1  0
  3  4  1  0
  3 15  1  0
  4  5  2  0
  4  9  1  0
  5  6  1  0
  5 14  1  0
  6  7  2  0
  6 13  1  0
  7  8  1  0
  7 12  1  0
  8  9  2  0
  8 11  1  0
  9 10  1  0
 16 17  1  0
 16 27  1  0
 17 18  2  0
 17 22  1  0
 18 19  1  0
 19 20  2  0
 19 26  1  0
 20 21  1  0
 20 25  1  0
 21 22  2  0
 21 24  1  0
 22 23  1  0
M  END
$$$$
