
     RDKit          3D

 26 28  0  0  0  0  0  0  0  0999 V2000
    5.0618    0.8223   -0.0000 C   0  0  0  0  0  0  0  0  0  0  0  0
    4.0203    1.7366   -0.0000 C   0  0  0  0  0  0  0  0  0  0  0  0
    2.7105    1.2966    0.0000 C   0  0  0  0  0  0  0  0  0  0  0  0
    2.4404   -0.0709    0.0000 C   0  0  0  0  0  0  0  0  0  0  0  0
    3.4898   -0.9904   -0.0000 C   0  0  0  0  0  0  0  0  0  0  0  0
    4.7944   -0.5388   -0.0000 C   0  0  0  0  0  0  0  0  0  0  0  0
    5.6083   -1.2480   -0.0000 H   0  0  0  0  0  0  0  0  0  0  0  0
    3.2558   -2.0430   -0.0000 H   0  0  0  0  0  0  0  0  0  0  0  0
    1.0801   -0.5543    0.0000 C   0  0  0  0  0  0  0  0  0  0  0  0
    0.6929   -1.7989    0.0000 N   0  0  0  0  0  0  0  0  0  0  0  0
   -0.6424   -1.8011    0.0000 N   0  0  0  0  0  0  0  0  0  0  0  0
   -1.0332   -0.5599    0.0000 C   0  0  0  0  0  0  0  0  0  0  0  0
   -2.3967   -0.0817    0.0000 C   0  0  0  0  0  0  0  0  0  0  0  0
   -2.6871    1.2820    0.0000 C   0  0  0  0  0  0  0  0  0  0  0  0
   -4.0187    1.6628   -0.0000 C   0  0  0  0  0  0  0  0  0  0  0  0
   -5.0236    0.8043   -0.0000 N   0  0  0  0  0  0  0  0  0  0  0  0
   -4.7434   -0.4889   -0.0000 C   0  0  0  0  0  0  0  0  0  0  0  0
   -3.4540   -0.9923   -0.0000 C   0  0  0  0  0  0  0  0  0  0  0  0
   -3.2494   -2.0500   -0.0000 H   0  0  0  0  0  0  0  0  0  0  0  0
   -5.5994   -1.1505   -0.0000 H   0  0  0  0  0  0  0  0  0  0  0  0
   -4.2975    2.7084   -0.0000 H   0  0  0  0  0  0  0  0  0  0  0  0
   -1.8955    2.0150    0.0000 H   0  0  0  0  0  0  0  0  0  0  0  0
    0.0218    0.2887    0.0000 O   0  0  0  0  0  0  0  0  0  0  0  0
    1.8941    2.0034    0.0000 H   0  0  0  0  0  0  0  0  0  0  0  0
    4.2304    2.7958   -0.0000 H   0  0  0  0  0  0  0  0  0  0  0  0
    6.0837    1.1714   -0.0000 H   0  0  0  0  0  0  0  0  0  0  0  0
  1  2  2  0
  1  6  1  0
  1 26  1  0
  2  3  1  0
  2 25  1  0
  3  4  2  0
  3 24  1  0
  4  5  1  0
  4  9  1  0
  5  6  2  0
  5  8  1  0
  6  7  1  0
  9 10  2  0
  9 23  1  0
 10 11  1  0
 11 12  2  0
 12 13  1  0
 12 23  1  0
 13 14  2  0
 13 18  1  0
 14 15  1  0
 14 22  1  0
 15 16  2  0
 15 21  1  0
 16 17  1  0
 17 18  2  0
 17 20  1  0
 18 19  1  0
M  END
$$$$
