
     RDKit          3D

 17 17  0  0  0  0  0  0  0  0999 V2000
   -1.7569   -0.0000    1.5462 N   0  0  0  0  0  0  0  0  0  0  0  0
   -1.4212    0.0000   -0.1078 S   0  0  2  0  0  0  0  0  0  0  0  0
   -1.8953    1.2388   -0.6524 O   0  0  0  0  0  0  0  0  0  0  0  0
   -1.8953   -1.2388   -0.6524 O   0  0  0  0  0  0  0  0  0  0  0  0
    0.3593    0.0000   -0.0739 C   0  0  0  0  0  0  0  0  0  0  0  0
    1.0294   -1.2055   -0.0452 C   0  0  0  0  0  0  0  0  0  0  0  0
    2.4135   -1.2038    0.0160 C   0  0  0  0  0  0  0  0  0  0  0  0
    3.1006   -0.0000    0.0488 C   0  0  0  0  0  0  0  0  0  0  0  0
    2.4135    1.2038    0.0160 C   0  0  0  0  0  0  0  0  0  0  0  0
    1.0294    1.2055   -0.0452 C   0  0  0  0  0  0  0  0  0  0  0  0
    0.4589    2.1195   -0.0848 H   0  0  0  0  0  0  0  0  0  0  0  0
    2.9554    2.1372    0.0363 H   0  0  0  0  0  0  0  0  0  0  0  0
    4.1795   -0.0000    0.0957 H   0  0  0  0  0  0  0  0  0  0  0  0
    2.9554   -2.1372    0.0363 H   0  0  0  0  0  0  0  0  0  0  0  0
    0.4589   -2.1195   -0.0848 H   0  0  0  0  0  0  0  0  0  0  0  0
   -2.2524   -0.8315    1.8241 H   0  0  0  0  0  0  0  0  0  0  0  0
   -2.2523    0.8315    1.8242 H   0  0  0  0  0  0  0  0  0  0  0  0
  2  1  1  1
  1 16  1  0
  1 17  1  0
  2  3  2  0
  2  4  2  0
  2  5  1  0
  5  6  2  0
  5 10  1  0
  6  7  1  0
  6 15  1  0
  7  8  2  0
  7 14  1  0
  8  9  1  0
  8 13  1  0
  9 10  2  0
  9 12  1  0
 10 11  1  0
M  END
$$$$
