
     RDKit          3D

 27 28  0  0  0  0  0  0  0  0999 V2000
   -0.0369   -2.4115   -0.0268 O   0  0  0  0  0  0  0  0  0  0  0  0
   -0.0862   -1.1790   -0.0536 C   0  0  0  0  0  0  0  0  0  0  0  0
    1.1240   -0.3618   -0.1018 C   0  0  0  0  0  0  0  0  0  0  0  0
    1.1042    0.9936   -0.4576 C   0  0  0  0  0  0  0  0  0  0  0  0
    2.2483    1.7500   -0.4704 C   0  0  0  0  0  0  0  0  0  0  0  0
    3.4702    1.1661   -0.1159 C   0  0  0  0  0  0  0  0  0  0  0  0
    3.5240   -0.1785    0.2065 C   0  0  0  0  0  0  0  0  0  0  0  0
    2.3718   -0.9618    0.1927 C   0  0  0  0  0  0  0  0  0  0  0  0
    2.4915   -2.2594    0.4753 O   0  0  0  0  0  0  0  0  0  0  0  0
    1.5995   -2.6743    0.3557 H   0  0  0  0  0  0  0  0  0  0  0  0
    4.4609   -0.6557    0.4561 H   0  0  0  0  0  0  0  0  0  0  0  0
    4.5731    1.9466   -0.1213 O   0  0  0  0  0  0  0  0  0  0  0  0
    5.3487    1.4281    0.1279 H   0  0  0  0  0  0  0  0  0  0  0  0
    2.2338    2.7900   -0.7514 H   0  0  0  0  0  0  0  0  0  0  0  0
    0.1697    1.4441   -0.7542 H   0  0  0  0  0  0  0  0  0  0  0  0
   -1.4014   -0.4994   -0.0167 C   0  0  0  0  0  0  0  0  0  0  0  0
   -2.4555   -1.0452   -0.7448 C   0  0  0  0  0  0  0  0  0  0  0  0
   -3.7073   -0.4665   -0.7128 C   0  0  0  0  0  0  0  0  0  0  0  0
   -3.9353    0.6556    0.0783 C   0  0  0  0  0  0  0  0  0  0  0  0
   -2.8941    1.1841    0.8395 C   0  0  0  0  0  0  0  0  0  0  0  0
   -1.6401    0.6145    0.7883 C   0  0  0  0  0  0  0  0  0  0  0  0
   -0.8466    1.0151    1.4012 H   0  0  0  0  0  0  0  0  0  0  0  0
   -3.0944    2.0391    1.4652 H   0  0  0  0  0  0  0  0  0  0  0  0
   -5.1478    1.2573    0.1466 O   0  0  0  0  0  0  0  0  0  0  0  0
   -5.7831    0.7892   -0.4093 H   0  0  0  0  0  0  0  0  0  0  0  0
   -4.5163   -0.8873   -1.2954 H   0  0  0  0  0  0  0  0  0  0  0  0
   -2.2754   -1.9234   -1.3462 H   0  0  0  0  0  0  0  0  0  0  0  0
  1  2  2  0
  2  3  1  0
  2 16  1  0
  3  4  2  0
  3  8  1  0
  4  5  1  0
  4 15  1  0
  5  6  2  0
  5 14  1  0
  6  7  1  0
  6 12  1  0
  7  8  2  0
  7 11  1  0
  8  9  1  0
  9 10  1  0
 12 13  1  0
 16 17  2  0
 16 21  1  0
 17 18  1  0
 17 27  1  0
 18 19  2  0
 18 26  1  0
 19 20  1  0
 19 24  1  0
 20 21  2  0
 20 23  1  0
 21 22  1  0
 24 25  1  0
M  END
$$$$

     RDKit          3D

 27 28  0  0  0  0  0  0  0  0999 V2000
    0.0341    2.4143   -0.0232 O   0  0  0  0  0  0  0  0  0  0  0  0
    0.0857    1.1824   -0.0537 C   0  0  0  0  0  0  0  0  0  0  0  0
   -1.1236    0.3631   -0.1026 C   0  0  0  0  0  0  0  0  0  0  0  0
   -1.1017   -0.9915   -0.4606 C   0  0  0  0  0  0  0  0  0  0  0  0
   -2.2443   -1.7505   -0.4726 C   0  0  0  0  0  0  0  0  0  0  0  0
   -3.4668   -1.1694   -0.1160 C   0  0  0  0  0  0  0  0  0  0  0  0
   -3.5229    0.1746    0.2081 C   0  0  0  0  0  0  0  0  0  0  0  0
   -2.3721    0.9604    0.1940 C   0  0  0  0  0  0  0  0  0  0  0  0
   -2.4939    2.2571    0.4786 O   0  0  0  0  0  0  0  0  0  0  0  0
   -1.6028    2.6742    0.3580 H   0  0  0  0  0  0  0  0  0  0  0  0
   -4.4605    0.6499    0.4588 H   0  0  0  0  0  0  0  0  0  0  0  0
   -4.5681   -1.9524   -0.1206 O   0  0  0  0  0  0  0  0  0  0  0  0
   -5.3448   -1.4350    0.1275 H   0  0  0  0  0  0  0  0  0  0  0  0
   -2.2283   -2.7899   -0.7556 H   0  0  0  0  0  0  0  0  0  0  0  0
   -0.1666   -1.4391   -0.7600 H   0  0  0  0  0  0  0  0  0  0  0  0
    1.4013    0.5033   -0.0183 C   0  0  0  0  0  0  0  0  0  0  0  0
    1.6384   -0.6050    0.7908 C   0  0  0  0  0  0  0  0  0  0  0  0
    2.8949   -1.1754    0.8412 C   0  0  0  0  0  0  0  0  0  0  0  0
    3.9342   -0.6537    0.0763 C   0  0  0  0  0  0  0  0  0  0  0  0
    3.7064    0.4659   -0.7219 C   0  0  0  0  0  0  0  0  0  0  0  0
    2.4569    1.0439   -0.7523 C   0  0  0  0  0  0  0  0  0  0  0  0
    2.2753    1.9194   -1.3570 H   0  0  0  0  0  0  0  0  0  0  0  0
    4.5246    0.8659   -1.2989 H   0  0  0  0  0  0  0  0  0  0  0  0
    5.1774   -1.1931    0.0849 O   0  0  0  0  0  0  0  0  0  0  0  0
    5.2081   -1.9514    0.6812 H   0  0  0  0  0  0  0  0  0  0  0  0
    3.0759   -2.0297    1.4806 H   0  0  0  0  0  0  0  0  0  0  0  0
    0.8462   -1.0032    1.4072 H   0  0  0  0  0  0  0  0  0  0  0  0
  1  2  2  0
  2  3  1  0
  2 16  1  0
  3  4  2  0
  3  8  1  0
  4  5  1  0
  4 15  1  0
  5  6  2  0
  5 14  1  0
  6  7  1  0
  6 12  1  0
  7  8  2  0
  7 11  1  0
  8  9  1  0
  9 10  1  0
 12 13  1  0
 16 17  2  0
 16 21  1  0
 17 18  1  0
 17 27  1  0
 18 19  2  0
 18 26  1  0
 19 20  1  0
 19 24  1  0
 20 21  2  0
 20 23  1  0
 21 22  1  0
 24 25  1  0
M  END
$$$$
