
     RDKit          3D

 19 19  0  0  0  0  0  0  0  0999 V2000
    4.0871   -0.0000    0.1102 N   0  0  0  0  0  0  0  0  0  0  0  0
    2.7215    0.0000    0.0059 C   0  0  0  0  0  0  0  0  0  0  0  0
    2.0117    1.2069   -0.0184 C   0  0  0  0  0  0  0  0  0  0  0  0
    0.6334    1.2032   -0.0606 C   0  0  0  0  0  0  0  0  0  0  0  0
   -0.0456   -0.0000   -0.0820 C   0  0  0  0  0  0  0  0  0  0  0  0
    0.6334   -1.2032   -0.0606 C   0  0  0  0  0  0  0  0  0  0  0  0
    2.0117   -1.2068   -0.0184 C   0  0  0  0  0  0  0  0  0  0  0  0
    2.5560   -2.1396   -0.0050 H   0  0  0  0  0  0  0  0  0  0  0  0
    0.0666   -2.1195   -0.0939 H   0  0  0  0  0  0  0  0  0  0  0  0
   -1.8165   -0.0000   -0.1010 S   0  0  1  0  0  0  0  0  0  0  0  0
   -2.3000    1.2386   -0.6421 O   0  0  0  0  0  0  0  0  0  0  0  0
   -2.3000   -1.2386   -0.6420 O   0  0  0  0  0  0  0  0  0  0  0  0
   -2.1586    0.0000    1.5558 N   0  0  0  0  0  0  0  0  0  0  0  0
   -2.6599    0.8308    1.8255 H   0  0  0  0  0  0  0  0  0  0  0  0
   -2.6599   -0.8308    1.8256 H   0  0  0  0  0  0  0  0  0  0  0  0
    0.0666    2.1195   -0.0940 H   0  0  0  0  0  0  0  0  0  0  0  0
    2.5560    2.1396   -0.0050 H   0  0  0  0  0  0  0  0  0  0  0  0
    4.5731    0.8528   -0.1089 H   0  0  0  0  0  0  0  0  0  0  0  0
    4.5731   -0.8528   -0.1089 H   0  0  0  0  0  0  0  0  0  0  0  0
  1  2  1  0
  1 18  1  0
  1 19  1  0
  2  3  2  0
  2  7  1  0
  3  4  1  0
  3 17  1  0
  4  5  2  0
  4 16  1  0
  5  6  1  0
  5 10  1  0
  6  7  2  0
  6  9  1  0
  7  8  1  0
 10 11  2  0
 10 12  2  0
 10 13  1  1
 13 14  1  0
 13 15  1  0
M  END
$$$$
