
     RDKit          3D

 17 18  0  0  0  0  0  0  0  0999 V2000
   -1.7946   -1.9849    0.0000 O   0  0  0  0  0  0  0  0  0  0  0  0
   -1.3496   -0.8580    0.0000 C   0  0  0  0  0  0  0  0  0  0  0  0
   -2.2102    0.2390   -0.0000 N   0  0  0  0  0  0  0  0  0  0  0  0
   -1.7729    1.5273   -0.0000 C   0  0  0  0  0  0  0  0  0  0  0  0
   -0.5488    1.8822    0.0000 N   0  0  0  0  0  0  0  0  0  0  0  0
    0.4056    0.8908    0.0000 C   0  0  0  0  0  0  0  0  0  0  0  0
    1.7563    1.2521    0.0000 C   0  0  0  0  0  0  0  0  0  0  0  0
    2.7297    0.2786    0.0000 C   0  0  0  0  0  0  0  0  0  0  0  0
    2.3853   -1.0724   -0.0000 C   0  0  0  0  0  0  0  0  0  0  0  0
    1.0608   -1.4474   -0.0000 C   0  0  0  0  0  0  0  0  0  0  0  0
    0.0598   -0.4745    0.0000 C   0  0  0  0  0  0  0  0  0  0  0  0
    0.7646   -2.4856   -0.0000 H   0  0  0  0  0  0  0  0  0  0  0  0
    3.1607   -1.8235   -0.0000 H   0  0  0  0  0  0  0  0  0  0  0  0
    3.7719    0.5623   -0.0000 H   0  0  0  0  0  0  0  0  0  0  0  0
    2.0050    2.3013    0.0000 H   0  0  0  0  0  0  0  0  0  0  0  0
   -2.5342    2.2969   -0.0000 H   0  0  0  0  0  0  0  0  0  0  0  0
   -3.2006    0.0279   -0.0000 H   0  0  0  0  0  0  0  0  0  0  0  0
  1  2  2  0
  2  3  1  0
  2 11  1  0
  3  4  1  0
  3 17  1  0
  4  5  2  0
  4 16  1  0
  5  6  1  0
  6  7  1  0
  6 11  2  0
  7  8  2  0
  7 15  1  0
  8  9  1  0
  8 14  1  0
  9 10  2  0
  9 13  1  0
 10 11  1  0
 10 12  1  0
M  END
$$$$
