
     RDKit          3D

 51 53  0  0  0  0  0  0  0  0999 V2000
    5.4264    1.6803    1.4535 C   0  0  0  0  0  0  0  0  0  0  0  0
    5.4102    0.7969    2.0863 H   0  0  0  0  0  0  0  0  0  0  0  0
    4.7949    2.4343    1.9172 H   0  0  0  0  0  0  0  0  0  0  0  0
    6.4447    2.0613    1.4131 H   0  0  0  0  0  0  0  0  0  0  0  0
    4.9268    1.3538    0.0387 C   0  0  2  0  0  0  0  0  0  0  0  0
    3.5090    0.8249    0.1361 C   0  0  0  0  0  0  0  0  0  0  0  0
    2.4881    1.7215    0.4490 C   0  0  0  0  0  0  0  0  0  0  0  0
    1.1673    1.3365    0.5318 C   0  0  0  0  0  0  0  0  0  0  0  0
    0.8297    0.0074    0.2961 C   0  0  0  0  0  0  0  0  0  0  0  0
    1.8478   -0.8983    0.0327 C   0  0  0  0  0  0  0  0  0  0  0  0
    3.1837   -0.5229   -0.0414 C   0  0  0  0  0  0  0  0  0  0  0  0
    4.2140   -1.5977   -0.3320 C   0  0  2  0  0  0  0  0  0  0  0  0
    5.6314   -1.0761   -0.0673 C   0  0  0  0  0  0  0  0  0  0  0  0
    5.8418    0.3198   -0.6278 C   0  0  0  0  0  0  0  0  0  0  0  0
    5.6461    0.3130   -1.7017 H   0  0  0  0  0  0  0  0  0  0  0  0
    6.8825    0.6199   -0.4867 H   0  0  0  0  0  0  0  0  0  0  0  0
    5.8117   -1.0658    1.0091 H   0  0  0  0  0  0  0  0  0  0  0  0
    6.3540   -1.7634   -0.5127 H   0  0  0  0  0  0  0  0  0  0  0  0
    4.0675   -2.0307   -1.7977 C   0  0  0  0  0  0  0  0  0  0  0  0
    4.7863   -2.8133   -2.0313 H   0  0  0  0  0  0  0  0  0  0  0  0
    4.2348   -1.1937   -2.4713 H   0  0  0  0  0  0  0  0  0  0  0  0
    3.0677   -2.4151   -1.9829 H   0  0  0  0  0  0  0  0  0  0  0  0
    3.9914   -2.8183    0.5732 C   0  0  0  0  0  0  0  0  0  0  0  0
    3.0861   -3.3576    0.3121 H   0  0  0  0  0  0  0  0  0  0  0  0
    4.8302   -3.5041    0.4720 H   0  0  0  0  0  0  0  0  0  0  0  0
    3.9193   -2.5121    1.6147 H   0  0  0  0  0  0  0  0  0  0  0  0
    1.5585   -1.9264   -0.1173 H   0  0  0  0  0  0  0  0  0  0  0  0
   -0.5603   -0.5205    0.3561 C   0  0  0  0  0  0  0  0  0  0  0  0
   -0.8048   -1.6699    0.6568 O   0  0  0  0  0  0  0  0  0  0  0  0
   -1.5151    0.4064    0.0173 N   0  0  0  0  0  0  0  0  0  0  0  0
   -2.8973    0.2731   -0.0114 C   0  0  0  0  0  0  0  0  0  0  0  0
   -3.5567   -0.8901    0.3873 C   0  0  0  0  0  0  0  0  0  0  0  0
   -4.9335   -0.9522    0.3422 C   0  0  0  0  0  0  0  0  0  0  0  0
   -5.6795    0.1390   -0.0994 C   0  0  0  0  0  0  0  0  0  0  0  0
   -5.0192    1.3017   -0.4981 C   0  0  0  0  0  0  0  0  0  0  0  0
   -3.6460    1.3682   -0.4544 C   0  0  0  0  0  0  0  0  0  0  0  0
   -3.1380    2.2714   -0.7639 H   0  0  0  0  0  0  0  0  0  0  0  0
   -5.6069    2.1405   -0.8384 H   0  0  0  0  0  0  0  0  0  0  0  0
   -7.1509    0.1082   -0.1604 C   0  0  0  0  0  0  0  0  0  0  0  0
   -7.8451    1.0236   -0.5334 O   0  0  0  0  0  0  0  0  0  0  0  0
   -7.6821   -1.0588    0.2461 O   0  0  0  0  0  0  0  0  0  0  0  0
   -8.6483   -1.0127    0.1815 H   0  0  0  0  0  0  0  0  0  0  0  0
   -5.4424   -1.8514    0.6511 H   0  0  0  0  0  0  0  0  0  0  0  0
   -2.9810   -1.7345    0.7269 H   0  0  0  0  0  0  0  0  0  0  0  0
   -1.1734    1.3077   -0.2877 H   0  0  0  0  0  0  0  0  0  0  0  0
    0.4214    2.0673    0.8123 H   0  0  0  0  0  0  0  0  0  0  0  0
    2.7310    2.7557    0.6375 H   0  0  0  0  0  0  0  0  0  0  0  0
    4.9751    2.6311   -0.8138 C   0  0  0  0  0  0  0  0  0  0  0  0
    4.5167    3.4760   -0.3082 H   0  0  0  0  0  0  0  0  0  0  0  0
    4.4632    2.4769   -1.7616 H   0  0  0  0  0  0  0  0  0  0  0  0
    6.0113    2.8907   -1.0206 H   0  0  0  0  0  0  0  0  0  0  0  0
  1  2  1  0
  1  3  1  0
  1  4  1  0
  5  1  1  1
  5  6  1  0
  5 14  1  0
  5 48  1  0
  6  7  1  0
  6 11  2  0
  7  8  2  0
  7 47  1  0
  8  9  1  0
  8 46  1  0
  9 10  2  0
  9 28  1  0
 10 11  1  0
 10 27  1  0
 11 12  1  0
 12 13  1  0
 12 19  1  6
 12 23  1  0
 13 14  1  0
 13 17  1  0
 13 18  1  0
 14 15  1  0
 14 16  1  0
 19 20  1  0
 19 21  1  0
 19 22  1  0
 23 24  1  0
 23 25  1  0
 23 26  1  0
 28 29  2  0
 28 30  1  0
 30 31  1  0
 30 45  1  0
 31 32  2  0
 31 36  1  0
 32 33  1  0
 32 44  1  0
 33 34  2  0
 33 43  1  0
 34 35  1  0
 34 39  1  0
 35 36  2  0
 35 38  1  0
 36 37  1  0
 39 40  2  0
 39 41  1  0
 41 42  1  0
 48 49  1  0
 48 50  1  0
 48 51  1  0
M  END
$$$$

     RDKit          3D

 51 53  0  0  0  0  0  0  0  0999 V2000
    5.4282    1.6969    1.4380 C   0  0  0  0  0  0  0  0  0  0  0  0
    5.4217    0.8140    2.0717 H   0  0  0  0  0  0  0  0  0  0  0  0
    4.7956    2.4476    1.9056 H   0  0  0  0  0  0  0  0  0  0  0  0
    6.4440    2.0838    1.3901 H   0  0  0  0  0  0  0  0  0  0  0  0
    4.9205    1.3661    0.0272 C   0  0  2  0  0  0  0  0  0  0  0  0
    3.5060    0.8301    0.1347 C   0  0  0  0  0  0  0  0  0  0  0  0
    2.4830    1.7216    0.4554 C   0  0  0  0  0  0  0  0  0  0  0  0
    1.1646    1.3301    0.5467 C   0  0  0  0  0  0  0  0  0  0  0  0
    0.8317   -0.0003    0.3116 C   0  0  0  0  0  0  0  0  0  0  0  0
    1.8524   -0.9008    0.0411 C   0  0  0  0  0  0  0  0  0  0  0  0
    3.1859   -0.5191   -0.0414 C   0  0  0  0  0  0  0  0  0  0  0  0
    4.2194   -1.5887   -0.3397 C   0  0  2  0  0  0  0  0  0  0  0  0
    5.6357   -1.0606   -0.0825 C   0  0  0  0  0  0  0  0  0  0  0  0
    5.8366    0.3362   -0.6443 C   0  0  0  0  0  0  0  0  0  0  0  0
    5.6351    0.3283   -1.7172 H   0  0  0  0  0  0  0  0  0  0  0  0
    6.8767    0.6412   -0.5090 H   0  0  0  0  0  0  0  0  0  0  0  0
    5.8215   -1.0494    0.9929 H   0  0  0  0  0  0  0  0  0  0  0  0
    6.3592   -1.7445   -0.5316 H   0  0  0  0  0  0  0  0  0  0  0  0
    4.0660   -2.0202   -1.8052 C   0  0  0  0  0  0  0  0  0  0  0  0
    4.2236   -1.1812   -2.4786 H   0  0  0  0  0  0  0  0  0  0  0  0
    3.0673   -2.4106   -1.9844 H   0  0  0  0  0  0  0  0  0  0  0  0
    4.7880   -2.7980   -2.0448 H   0  0  0  0  0  0  0  0  0  0  0  0
    4.0079   -2.8117    0.5649 C   0  0  0  0  0  0  0  0  0  0  0  0
    4.8496   -3.4932    0.4580 H   0  0  0  0  0  0  0  0  0  0  0  0
    3.9401   -2.5074    1.6072 H   0  0  0  0  0  0  0  0  0  0  0  0
    3.1038   -3.3552    0.3080 H   0  0  0  0  0  0  0  0  0  0  0  0
    1.5669   -1.9302   -0.1079 H   0  0  0  0  0  0  0  0  0  0  0  0
   -0.5553   -0.5357    0.3770 C   0  0  0  0  0  0  0  0  0  0  0  0
   -0.7923   -1.6870    0.6754 O   0  0  0  0  0  0  0  0  0  0  0  0
   -1.5166    0.3871    0.0444 N   0  0  0  0  0  0  0  0  0  0  0  0
   -2.8977    0.2436    0.0130 C   0  0  0  0  0  0  0  0  0  0  0  0
   -3.5497   -0.9280    0.4004 C   0  0  0  0  0  0  0  0  0  0  0  0
   -4.9250   -0.9942    0.3482 C   0  0  0  0  0  0  0  0  0  0  0  0
   -5.6791    0.0954   -0.0869 C   0  0  0  0  0  0  0  0  0  0  0  0
   -5.0272    1.2660   -0.4730 C   0  0  0  0  0  0  0  0  0  0  0  0
   -3.6534    1.3367   -0.4225 C   0  0  0  0  0  0  0  0  0  0  0  0
   -3.1497    2.2456   -0.7226 H   0  0  0  0  0  0  0  0  0  0  0  0
   -5.6054    2.1118   -0.8101 H   0  0  0  0  0  0  0  0  0  0  0  0
   -7.1464   -0.0247   -0.1250 C   0  0  0  0  0  0  0  0  0  0  0  0
   -7.7688   -1.0085    0.1943 O   0  0  0  0  0  0  0  0  0  0  0  0
   -7.7662    1.0893   -0.5604 O   0  0  0  0  0  0  0  0  0  0  0  0
   -8.7244    0.9422   -0.5611 H   0  0  0  0  0  0  0  0  0  0  0  0
   -5.4429   -1.8935    0.6444 H   0  0  0  0  0  0  0  0  0  0  0  0
   -2.9703   -1.7718    0.7348 H   0  0  0  0  0  0  0  0  0  0  0  0
   -1.1808    1.2922   -0.2559 H   0  0  0  0  0  0  0  0  0  0  0  0
    0.4172    2.0573    0.8328 H   0  0  0  0  0  0  0  0  0  0  0  0
    2.7224    2.7567    0.6432 H   0  0  0  0  0  0  0  0  0  0  0  0
    4.9560    2.6425   -0.8273 C   0  0  0  0  0  0  0  0  0  0  0  0
    4.4965    3.4856   -0.3195 H   0  0  0  0  0  0  0  0  0  0  0  0
    4.4385    2.4844   -1.7713 H   0  0  0  0  0  0  0  0  0  0  0  0
    5.9895    2.9075   -1.0415 H   0  0  0  0  0  0  0  0  0  0  0  0
  1  2  1  0
  1  3  1  0
  1  4  1  0
  5  1  1  1
  5  6  1  0
  5 14  1  0
  5 48  1  0
  6  7  1  0
  6 11  2  0
  7  8  2  0
  7 47  1  0
  8  9  1  0
  8 46  1  0
  9 10  2  0
  9 28  1  0
 10 11  1  0
 10 27  1  0
 11 12  1  0
 12 13  1  0
 12 19  1  6
 12 23  1  0
 13 14  1  0
 13 17  1  0
 13 18  1  0
 14 15  1  0
 14 16  1  0
 19 20  1  0
 19 21  1  0
 19 22  1  0
 23 24  1  0
 23 25  1  0
 23 26  1  0
 28 29  2  0
 28 30  1  0
 30 31  1  0
 30 45  1  0
 31 32  2  0
 31 36  1  0
 32 33  1  0
 32 44  1  0
 33 34  2  0
 33 43  1  0
 34 35  1  0
 34 39  1  0
 35 36  2  0
 35 38  1  0
 36 37  1  0
 39 40  2  0
 39 41  1  0
 41 42  1  0
 48 49  1  0
 48 50  1  0
 48 51  1  0
M  END
$$$$

     RDKit          3D

 51 53  0  0  0  0  0  0  0  0999 V2000
    5.5219    0.6060    1.8361 C   0  0  0  0  0  0  0  0  0  0  0  0
    5.0355   -0.1919    2.3915 H   0  0  0  0  0  0  0  0  0  0  0  0
    5.1803    1.5538    2.2447 H   0  0  0  0  0  0  0  0  0  0  0  0
    6.5964    0.5313    1.9897 H   0  0  0  0  0  0  0  0  0  0  0  0
    5.1938    0.5155    0.3384 C   0  0  2  0  0  0  0  0  0  0  0  0
    3.6921    0.6459    0.1694 C   0  0  0  0  0  0  0  0  0  0  0  0
    3.1122    1.8988    0.3646 C   0  0  0  0  0  0  0  0  0  0  0  0
    1.7582    2.1072    0.2279 C   0  0  0  0  0  0  0  0  0  0  0  0
    0.9278    1.0411   -0.0999 C   0  0  0  0  0  0  0  0  0  0  0  0
    1.4964   -0.2097   -0.2944 C   0  0  0  0  0  0  0  0  0  0  0  0
    2.8625   -0.4324   -0.1524 C   0  0  0  0  0  0  0  0  0  0  0  0
    3.3837   -1.8391   -0.3868 C   0  0  2  0  0  0  0  0  0  0  0  0
    4.8086   -1.9817    0.1603 C   0  0  0  0  0  0  0  0  0  0  0  0
    5.6941   -0.8141   -0.2382 C   0  0  0  0  0  0  0  0  0  0  0  0
    5.7280   -0.7392   -1.3265 H   0  0  0  0  0  0  0  0  0  0  0  0
    6.7142   -0.9925    0.1088 H   0  0  0  0  0  0  0  0  0  0  0  0
    4.7655   -2.0503    1.2489 H   0  0  0  0  0  0  0  0  0  0  0  0
    5.2417   -2.9137   -0.2095 H   0  0  0  0  0  0  0  0  0  0  0  0
    3.3559   -2.1255   -1.8949 C   0  0  0  0  0  0  0  0  0  0  0  0
    3.9734   -1.4151   -2.4382 H   0  0  0  0  0  0  0  0  0  0  0  0
    2.3422   -2.0473   -2.2806 H   0  0  0  0  0  0  0  0  0  0  0  0
    3.7236   -3.1300   -2.0936 H   0  0  0  0  0  0  0  0  0  0  0  0
    2.5094   -2.8780    0.3331 C   0  0  0  0  0  0  0  0  0  0  0  0
    1.5456   -3.0072   -0.1518 H   0  0  0  0  0  0  0  0  0  0  0  0
    3.0120   -3.8429    0.3253 H   0  0  0  0  0  0  0  0  0  0  0  0
    2.3428   -2.5866    1.3684 H   0  0  0  0  0  0  0  0  0  0  0  0
    0.8674   -1.0318   -0.6028 H   0  0  0  0  0  0  0  0  0  0  0  0
   -0.5285    1.3035   -0.2608 C   0  0  0  0  0  0  0  0  0  0  0  0
   -0.9580    2.3577   -0.6769 O   0  0  0  0  0  0  0  0  0  0  0  0
   -1.3166    0.2480    0.1300 N   0  0  0  0  0  0  0  0  0  0  0  0
   -2.7004    0.1292    0.1085 C   0  0  0  0  0  0  0  0  0  0  0  0
   -3.5389    1.1161   -0.4109 C   0  0  0  0  0  0  0  0  0  0  0  0
   -4.9054    0.9311   -0.4080 C   0  0  0  0  0  0  0  0  0  0  0  0
   -5.4628   -0.2367    0.1096 C   0  0  0  0  0  0  0  0  0  0  0  0
   -4.6233   -1.2233    0.6279 C   0  0  0  0  0  0  0  0  0  0  0  0
   -3.2597   -1.0430    0.6273 C   0  0  0  0  0  0  0  0  0  0  0  0
   -2.6122   -1.8097    1.0305 H   0  0  0  0  0  0  0  0  0  0  0  0
   -5.0659   -2.1236    1.0260 H   0  0  0  0  0  0  0  0  0  0  0  0
   -6.9174   -0.4681    0.1292 C   0  0  0  0  0  0  0  0  0  0  0  0
   -7.4519   -1.4614    0.5615 O   0  0  0  0  0  0  0  0  0  0  0  0
   -7.6309    0.5471   -0.3898 O   0  0  0  0  0  0  0  0  0  0  0  0
   -8.5753    0.3325   -0.3463 H   0  0  0  0  0  0  0  0  0  0  0  0
   -5.5531    1.6944   -0.8091 H   0  0  0  0  0  0  0  0  0  0  0  0
   -3.1090    2.0197   -0.8089 H   0  0  0  0  0  0  0  0  0  0  0  0
   -0.8324   -0.5436    0.5320 H   0  0  0  0  0  0  0  0  0  0  0  0
    1.3258    3.0853    0.3718 H   0  0  0  0  0  0  0  0  0  0  0  0
    3.7366    2.7380    0.6268 H   0  0  0  0  0  0  0  0  0  0  0  0
    5.9283    1.6442   -0.4010 C   0  0  0  0  0  0  0  0  0  0  0  0
    5.7998    2.6040    0.0905 H   0  0  0  0  0  0  0  0  0  0  0  0
    5.5665    1.7292   -1.4235 H   0  0  0  0  0  0  0  0  0  0  0  0
    6.9941    1.4262   -0.4291 H   0  0  0  0  0  0  0  0  0  0  0  0
  1  2  1  0
  1  3  1  0
  1  4  1  0
  5  1  1  1
  5  6  1  0
  5 14  1  0
  5 48  1  0
  6  7  1  0
  6 11  2  0
  7  8  2  0
  7 47  1  0
  8  9  1  0
  8 46  1  0
  9 10  2  0
  9 28  1  0
 10 11  1  0
 10 27  1  0
 11 12  1  0
 12 13  1  0
 12 19  1  6
 12 23  1  0
 13 14  1  0
 13 17  1  0
 13 18  1  0
 14 15  1  0
 14 16  1  0
 19 20  1  0
 19 21  1  0
 19 22  1  0
 23 24  1  0
 23 25  1  0
 23 26  1  0
 28 29  2  0
 28 30  1  0
 30 31  1  0
 30 45  1  0
 31 32  2  0
 31 36  1  0
 32 33  1  0
 32 44  1  0
 33 34  2  0
 33 43  1  0
 34 35  1  0
 34 39  1  0
 35 36  2  0
 35 38  1  0
 36 37  1  0
 39 40  2  0
 39 41  1  0
 41 42  1  0
 48 49  1  0
 48 50  1  0
 48 51  1  0
M  END
$$$$

     RDKit          3D

 51 53  0  0  0  0  0  0  0  0999 V2000
   -3.3015   -1.8222   -1.9924 C   0  0  0  0  0  0  0  0  0  0  0  0
   -2.2933   -2.2281   -1.9805 H   0  0  0  0  0  0  0  0  0  0  0  0
   -3.3609   -1.0984   -2.8017 H   0  0  0  0  0  0  0  0  0  0  0  0
   -3.9997   -2.6302   -2.2006 H   0  0  0  0  0  0  0  0  0  0  0  0
   -3.6446   -1.1577   -0.6511 C   0  0  2  0  0  0  0  0  0  0  0  0
   -2.6520   -0.0379   -0.4037 C   0  0  0  0  0  0  0  0  0  0  0  0
   -2.7673    1.1278   -1.1594 C   0  0  0  0  0  0  0  0  0  0  0  0
   -1.9042    2.1908   -1.0041 C   0  0  0  0  0  0  0  0  0  0  0  0
   -0.8784    2.1034   -0.0715 C   0  0  0  0  0  0  0  0  0  0  0  0
   -0.7660    0.9545    0.6984 C   0  0  0  0  0  0  0  0  0  0  0  0
   -1.6174   -0.1312    0.5325 C   0  0  0  0  0  0  0  0  0  0  0  0
   -1.3804   -1.3566    1.3961 C   0  0  2  0  0  0  0  0  0  0  0  0
   -2.1688   -2.5567    0.8589 C   0  0  0  0  0  0  0  0  0  0  0  0
   -3.5934   -2.1854    0.4854 C   0  0  0  0  0  0  0  0  0  0  0  0
   -4.1024   -1.7734    1.3587 H   0  0  0  0  0  0  0  0  0  0  0  0
   -4.1385   -3.0818    0.1814 H   0  0  0  0  0  0  0  0  0  0  0  0
   -1.6549   -2.9547   -0.0176 H   0  0  0  0  0  0  0  0  0  0  0  0
   -2.1809   -3.3439    1.6159 H   0  0  0  0  0  0  0  0  0  0  0  0
   -1.8097   -1.0340    2.8343 C   0  0  0  0  0  0  0  0  0  0  0  0
   -2.8637   -0.7718    2.8768 H   0  0  0  0  0  0  0  0  0  0  0  0
   -1.2407   -0.1930    3.2232 H   0  0  0  0  0  0  0  0  0  0  0  0
   -1.6386   -1.8932    3.4794 H   0  0  0  0  0  0  0  0  0  0  0  0
    0.1067   -1.7448    1.3927 C   0  0  0  0  0  0  0  0  0  0  0  0
    0.7190   -1.0312    1.9370 H   0  0  0  0  0  0  0  0  0  0  0  0
    0.2286   -2.7163    1.8674 H   0  0  0  0  0  0  0  0  0  0  0  0
    0.4849   -1.8094    0.3747 H   0  0  0  0  0  0  0  0  0  0  0  0
    0.0049    0.9112    1.4519 H   0  0  0  0  0  0  0  0  0  0  0  0
    0.0396    3.2516    0.1309 C   0  0  0  0  0  0  0  0  0  0  0  0
   -0.3341    4.4024    0.2107 O   0  0  0  0  0  0  0  0  0  0  0  0
    1.3731    2.9530    0.2949 N   0  0  0  0  0  0  0  0  0  0  0  0
    2.0556    1.7689    0.0406 C   0  0  0  0  0  0  0  0  0  0  0  0
    1.6818    0.9103   -0.9961 C   0  0  0  0  0  0  0  0  0  0  0  0
    2.3691   -0.2653   -1.1971 C   0  0  0  0  0  0  0  0  0  0  0  0
    3.4521   -0.6050   -0.3858 C   0  0  0  0  0  0  0  0  0  0  0  0
    3.8560    0.2734    0.6176 C   0  0  0  0  0  0  0  0  0  0  0  0
    3.1674    1.4492    0.8234 C   0  0  0  0  0  0  0  0  0  0  0  0
    3.4766    2.1284    1.6050 H   0  0  0  0  0  0  0  0  0  0  0  0
    4.7042    0.0225    1.2347 H   0  0  0  0  0  0  0  0  0  0  0  0
    4.1394   -1.8866   -0.6249 C   0  0  0  0  0  0  0  0  0  0  0  0
    3.8036   -2.7037   -1.4476 O   0  0  0  0  0  0  0  0  0  0  0  0
    5.2024   -2.0836    0.1747 O   0  0  0  0  0  0  0  0  0  0  0  0
    5.6064   -2.9406   -0.0309 H   0  0  0  0  0  0  0  0  0  0  0  0
    2.0886   -0.9398   -1.9917 H   0  0  0  0  0  0  0  0  0  0  0  0
    0.8576    1.1729   -1.6395 H   0  0  0  0  0  0  0  0  0  0  0  0
    1.9245    3.7221    0.6574 H   0  0  0  0  0  0  0  0  0  0  0  0
   -2.0092    3.0852   -1.5991 H   0  0  0  0  0  0  0  0  0  0  0  0
   -3.5541    1.2100   -1.8924 H   0  0  0  0  0  0  0  0  0  0  0  0
   -5.0803   -0.6148   -0.7171 C   0  0  0  0  0  0  0  0  0  0  0  0
   -5.2600   -0.0478   -1.6258 H   0  0  0  0  0  0  0  0  0  0  0  0
   -5.2849    0.0278    0.1366 H   0  0  0  0  0  0  0  0  0  0  0  0
   -5.7836   -1.4451   -0.7002 H   0  0  0  0  0  0  0  0  0  0  0  0
  1  2  1  0
  1  3  1  0
  1  4  1  0
  5  1  1  6
  5  6  1  0
  5 14  1  0
  5 48  1  0
  6  7  1  0
  6 11  2  0
  7  8  2  0
  7 47  1  0
  8  9  1  0
  8 46  1  0
  9 10  2  0
  9 28  1  0
 10 11  1  0
 10 27  1  0
 11 12  1  0
 12 13  1  0
 12 19  1  1
 12 23  1  0
 13 14  1  0
 13 17  1  0
 13 18  1  0
 14 15  1  0
 14 16  1  0
 19 20  1  0
 19 21  1  0
 19 22  1  0
 23 24  1  0
 23 25  1  0
 23 26  1  0
 28 29  2  0
 28 30  1  0
 30 31  1  0
 30 45  1  0
 31 32  2  0
 31 36  1  0
 32 33  1  0
 32 44  1  0
 33 34  2  0
 33 43  1  0
 34 35  1  0
 34 39  1  0
 35 36  2  0
 35 38  1  0
 36 37  1  0
 39 40  2  0
 39 41  1  0
 41 42  1  0
 48 49  1  0
 48 50  1  0
 48 51  1  0
M  END
$$$$

     RDKit          3D

 51 53  0  0  0  0  0  0  0  0999 V2000
    5.9118    1.1863    0.7613 C   0  0  0  0  0  0  0  0  0  0  0  0
    5.6512    0.7174    1.7067 H   0  0  0  0  0  0  0  0  0  0  0  0
    5.6438    2.2379    0.8259 H   0  0  0  0  0  0  0  0  0  0  0  0
    6.9883    1.1130    0.6217 H   0  0  0  0  0  0  0  0  0  0  0  0
    5.1793    0.5133   -0.4084 C   0  0  2  0  0  0  0  0  0  0  0  0
    3.6851    0.6459   -0.1850 C   0  0  0  0  0  0  0  0  0  0  0  0
    3.1066    1.9067   -0.3264 C   0  0  0  0  0  0  0  0  0  0  0  0
    1.7562    2.1139   -0.1573 C   0  0  0  0  0  0  0  0  0  0  0  0
    0.9271    1.0371    0.1373 C   0  0  0  0  0  0  0  0  0  0  0  0
    1.4998   -0.2143    0.3161 C   0  0  0  0  0  0  0  0  0  0  0  0
    2.8686   -0.4272    0.1844 C   0  0  0  0  0  0  0  0  0  0  0  0
    3.3999   -1.8286    0.4298 C   0  0  2  0  0  0  0  0  0  0  0  0
    4.9271   -1.8104    0.5612 C   0  0  0  0  0  0  0  0  0  0  0  0
    5.5835   -0.9618   -0.5136 C   0  0  0  0  0  0  0  0  0  0  0  0
    5.3011   -1.3395   -1.4980 H   0  0  0  0  0  0  0  0  0  0  0  0
    6.6697   -1.0416   -0.4325 H   0  0  0  0  0  0  0  0  0  0  0  0
    5.1936   -1.4198    1.5448 H   0  0  0  0  0  0  0  0  0  0  0  0
    5.3033   -2.8341    0.5028 H   0  0  0  0  0  0  0  0  0  0  0  0
    2.9757   -2.7285   -0.7400 C   0  0  0  0  0  0  0  0  0  0  0  0
    3.3562   -2.3470   -1.6841 H   0  0  0  0  0  0  0  0  0  0  0  0
    1.8917   -2.7788   -0.8125 H   0  0  0  0  0  0  0  0  0  0  0  0
    3.3555   -3.7375   -0.5945 H   0  0  0  0  0  0  0  0  0  0  0  0
    2.8338   -2.4070    1.7360 C   0  0  0  0  0  0  0  0  0  0  0  0
    3.3735   -3.3158    1.9945 H   0  0  0  0  0  0  0  0  0  0  0  0
    2.9492   -1.6943    2.5498 H   0  0  0  0  0  0  0  0  0  0  0  0
    1.7814   -2.6627    1.6498 H   0  0  0  0  0  0  0  0  0  0  0  0
    0.8719   -1.0439    0.6061 H   0  0  0  0  0  0  0  0  0  0  0  0
   -0.5302    1.2937    0.2977 C   0  0  0  0  0  0  0  0  0  0  0  0
   -0.9625    2.3391    0.7328 O   0  0  0  0  0  0  0  0  0  0  0  0
   -1.3160    0.2454   -0.1164 N   0  0  0  0  0  0  0  0  0  0  0  0
   -2.6999    0.1264   -0.1040 C   0  0  0  0  0  0  0  0  0  0  0  0
   -3.5405    1.1006    0.4357 C   0  0  0  0  0  0  0  0  0  0  0  0
   -4.9070    0.9163    0.4222 C   0  0  0  0  0  0  0  0  0  0  0  0
   -5.4625   -0.2382   -0.1262 C   0  0  0  0  0  0  0  0  0  0  0  0
   -4.6211   -1.2121   -0.6648 C   0  0  0  0  0  0  0  0  0  0  0  0
   -3.2574   -1.0324   -0.6538 C   0  0  0  0  0  0  0  0  0  0  0  0
   -2.6086   -1.7895   -1.0729 H   0  0  0  0  0  0  0  0  0  0  0  0
   -5.0622   -2.1021   -1.0869 H   0  0  0  0  0  0  0  0  0  0  0  0
   -6.9171   -0.4685   -0.1578 C   0  0  0  0  0  0  0  0  0  0  0  0
   -7.4500   -1.4504   -0.6171 O   0  0  0  0  0  0  0  0  0  0  0  0
   -7.6325    0.5338    0.3833 O   0  0  0  0  0  0  0  0  0  0  0  0
   -8.5768    0.3207    0.3304 H   0  0  0  0  0  0  0  0  0  0  0  0
   -5.5561    1.6698    0.8391 H   0  0  0  0  0  0  0  0  0  0  0  0
   -3.1121    1.9941    0.8575 H   0  0  0  0  0  0  0  0  0  0  0  0
   -0.8299   -0.5372   -0.5330 H   0  0  0  0  0  0  0  0  0  0  0  0
    1.3235    3.0969   -0.2616 H   0  0  0  0  0  0  0  0  0  0  0  0
    3.7293    2.7521   -0.5726 H   0  0  0  0  0  0  0  0  0  0  0  0
    5.5942    1.2009   -1.7181 C   0  0  0  0  0  0  0  0  0  0  0  0
    4.9647    0.8674   -2.5406 H   0  0  0  0  0  0  0  0  0  0  0  0
    6.6268    0.9480   -1.9500 H   0  0  0  0  0  0  0  0  0  0  0  0
    5.5248    2.2824   -1.6493 H   0  0  0  0  0  0  0  0  0  0  0  0
  1  2  1  0
  1  3  1  0
  1  4  1  0
  5  1  1  1
  5  6  1  0
  5 14  1  0
  5 48  1  0
  6  7  1  0
  6 11  2  0
  7  8  2  0
  7 47  1  0
  8  9  1  0
  8 46  1  0
  9 10  2  0
  9 28  1  0
 10 11  1  0
 10 27  1  0
 11 12  1  0
 12 13  1  0
 12 19  1  6
 12 23  1  0
 13 14  1  0
 13 17  1  0
 13 18  1  0
 14 15  1  0
 14 16  1  0
 19 20  1  0
 19 21  1  0
 19 22  1  0
 23 24  1  0
 23 25  1  0
 23 26  1  0
 28 29  2  0
 28 30  1  0
 30 31  1  0
 30 45  1  0
 31 32  2  0
 31 36  1  0
 32 33  1  0
 32 44  1  0
 33 34  2  0
 33 43  1  0
 34 35  1  0
 34 39  1  0
 35 36  2  0
 35 38  1  0
 36 37  1  0
 39 40  2  0
 39 41  1  0
 41 42  1  0
 48 49  1  0
 48 50  1  0
 48 51  1  0
M  END
$$$$

     RDKit          3D

 51 53  0  0  0  0  0  0  0  0999 V2000
    5.9332    1.6218    0.4104 C   0  0  0  0  0  0  0  0  0  0  0  0
    5.5673    1.7052    1.4315 H   0  0  0  0  0  0  0  0  0  0  0  0
    5.8110    2.5837   -0.0785 H   0  0  0  0  0  0  0  0  0  0  0  0
    6.9978    1.3989    0.4425 H   0  0  0  0  0  0  0  0  0  0  0  0
    5.1967    0.4989   -0.3359 C   0  0  2  0  0  0  0  0  0  0  0  0
    3.6950    0.6369   -0.1724 C   0  0  0  0  0  0  0  0  0  0  0  0
    3.1225    1.8927   -0.3710 C   0  0  0  0  0  0  0  0  0  0  0  0
    1.7696    2.1091   -0.2367 C   0  0  0  0  0  0  0  0  0  0  0  0
    0.9326    1.0486    0.0927 C   0  0  0  0  0  0  0  0  0  0  0  0
    1.4936   -0.2052    0.2896 C   0  0  0  0  0  0  0  0  0  0  0  0
    2.8585   -0.4362    0.1492 C   0  0  0  0  0  0  0  0  0  0  0  0
    3.3715   -1.8456    0.3849 C   0  0  2  0  0  0  0  0  0  0  0  0
    4.7955   -1.9963   -0.1624 C   0  0  0  0  0  0  0  0  0  0  0  0
    5.6881   -0.8350    0.2387 C   0  0  0  0  0  0  0  0  0  0  0  0
    6.7072   -1.0192   -0.1080 H   0  0  0  0  0  0  0  0  0  0  0  0
    5.7219   -0.7624    1.3271 H   0  0  0  0  0  0  0  0  0  0  0  0
    5.2227   -2.9318    0.2054 H   0  0  0  0  0  0  0  0  0  0  0  0
    4.7519   -2.0622   -1.2512 H   0  0  0  0  0  0  0  0  0  0  0  0
    2.4915   -2.8800   -0.3347 C   0  0  0  0  0  0  0  0  0  0  0  0
    2.3273   -2.5883   -1.3704 H   0  0  0  0  0  0  0  0  0  0  0  0
    1.5267   -3.0028    0.1498 H   0  0  0  0  0  0  0  0  0  0  0  0
    2.9883   -3.8480   -0.3258 H   0  0  0  0  0  0  0  0  0  0  0  0
    3.3418   -2.1315    1.8930 C   0  0  0  0  0  0  0  0  0  0  0  0
    3.9626   -1.4241    2.4362 H   0  0  0  0  0  0  0  0  0  0  0  0
    2.3283   -2.0479    2.2785 H   0  0  0  0  0  0  0  0  0  0  0  0
    3.7043   -3.1378    2.0923 H   0  0  0  0  0  0  0  0  0  0  0  0
    0.8596   -1.0230    0.5991 H   0  0  0  0  0  0  0  0  0  0  0  0
   -0.5217    1.3216    0.2546 C   0  0  0  0  0  0  0  0  0  0  0  0
   -0.9428    2.3807    0.6662 O   0  0  0  0  0  0  0  0  0  0  0  0
   -1.3184    0.2696   -0.1291 N   0  0  0  0  0  0  0  0  0  0  0  0
   -2.7028    0.1603   -0.1001 C   0  0  0  0  0  0  0  0  0  0  0  0
   -3.5326    1.1544    0.4203 C   0  0  0  0  0  0  0  0  0  0  0  0
   -4.8984    0.9723    0.4232 C   0  0  0  0  0  0  0  0  0  0  0  0
   -5.4670   -0.1945   -0.0874 C   0  0  0  0  0  0  0  0  0  0  0  0
   -4.6374   -1.1876   -0.6067 C   0  0  0  0  0  0  0  0  0  0  0  0
   -3.2722   -1.0099   -0.6116 C   0  0  0  0  0  0  0  0  0  0  0  0
   -2.6303   -1.7814   -1.0153 H   0  0  0  0  0  0  0  0  0  0  0  0
   -5.0717   -2.0918   -1.0030 H   0  0  0  0  0  0  0  0  0  0  0  0
   -6.9322   -0.3417   -0.0620 C   0  0  0  0  0  0  0  0  0  0  0  0
   -7.7028    0.4791    0.3734 O   0  0  0  0  0  0  0  0  0  0  0  0
   -7.3646   -1.5075   -0.5806 O   0  0  0  0  0  0  0  0  0  0  0  0
   -8.3324   -1.5386   -0.5332 H   0  0  0  0  0  0  0  0  0  0  0  0
   -5.5527    1.7323    0.8218 H   0  0  0  0  0  0  0  0  0  0  0  0
   -3.0968    2.0575    0.8129 H   0  0  0  0  0  0  0  0  0  0  0  0
   -0.8408   -0.5268   -0.5294 H   0  0  0  0  0  0  0  0  0  0  0  0
    1.3429    3.0893   -0.3833 H   0  0  0  0  0  0  0  0  0  0  0  0
    3.7522    2.7278   -0.6339 H   0  0  0  0  0  0  0  0  0  0  0  0
    5.5320    0.5918   -1.8317 C   0  0  0  0  0  0  0  0  0  0  0  0
    6.6071    0.5152   -1.9803 H   0  0  0  0  0  0  0  0  0  0  0  0
    5.1945    1.5412   -2.2401 H   0  0  0  0  0  0  0  0  0  0  0  0
    5.0467   -0.2040   -2.3912 H   0  0  0  0  0  0  0  0  0  0  0  0
  1  2  1  0
  1  3  1  0
  1  4  1  0
  5  1  1  1
  5  6  1  0
  5 14  1  0
  5 48  1  0
  6  7  1  0
  6 11  2  0
  7  8  2  0
  7 47  1  0
  8  9  1  0
  8 46  1  0
  9 10  2  0
  9 28  1  0
 10 11  1  0
 10 27  1  0
 11 12  1  0
 12 13  1  0
 12 19  1  6
 12 23  1  0
 13 14  1  0
 13 17  1  0
 13 18  1  0
 14 15  1  0
 14 16  1  0
 19 20  1  0
 19 21  1  0
 19 22  1  0
 23 24  1  0
 23 25  1  0
 23 26  1  0
 28 29  2  0
 28 30  1  0
 30 31  1  0
 30 45  1  0
 31 32  2  0
 31 36  1  0
 32 33  1  0
 32 44  1  0
 33 34  2  0
 33 43  1  0
 34 35  1  0
 34 39  1  0
 35 36  2  0
 35 38  1  0
 36 37  1  0
 39 40  2  0
 39 41  1  0
 41 42  1  0
 48 49  1  0
 48 50  1  0
 48 51  1  0
M  END
$$$$

     RDKit          3D

 51 53  0  0  0  0  0  0  0  0999 V2000
    5.9222    1.1654    0.7394 C   0  0  0  0  0  0  0  0  0  0  0  0
    5.6643    0.7023    1.6883 H   0  0  0  0  0  0  0  0  0  0  0  0
    5.6618    2.2190    0.8012 H   0  0  0  0  0  0  0  0  0  0  0  0
    6.9973    1.0841    0.5934 H   0  0  0  0  0  0  0  0  0  0  0  0
    5.1780    0.4926   -0.4229 C   0  0  2  0  0  0  0  0  0  0  0  0
    3.6860    0.6371   -0.1919 C   0  0  0  0  0  0  0  0  0  0  0  0
    3.1154    1.9011   -0.3370 C   0  0  0  0  0  0  0  0  0  0  0  0
    1.7672    2.1184   -0.1629 C   0  0  0  0  0  0  0  0  0  0  0  0
    0.9324    1.0485    0.1409 C   0  0  0  0  0  0  0  0  0  0  0  0
    1.4975   -0.2056    0.3240 C   0  0  0  0  0  0  0  0  0  0  0  0
    2.8642   -0.4284    0.1874 C   0  0  0  0  0  0  0  0  0  0  0  0
    3.3870   -1.8319    0.4389 C   0  0  2  0  0  0  0  0  0  0  0  0
    4.9152   -1.8245    0.5594 C   0  0  0  0  0  0  0  0  0  0  0  0
    5.5703   -0.9860   -0.5240 C   0  0  0  0  0  0  0  0  0  0  0  0
    5.2779   -1.3660   -1.5046 H   0  0  0  0  0  0  0  0  0  0  0  0
    6.6564   -1.0737   -0.4503 H   0  0  0  0  0  0  0  0  0  0  0  0
    5.1916   -1.4311    1.5392 H   0  0  0  0  0  0  0  0  0  0  0  0
    5.2834   -2.8513    0.5034 H   0  0  0  0  0  0  0  0  0  0  0  0
    2.9481   -2.7371   -0.7213 C   0  0  0  0  0  0  0  0  0  0  0  0
    3.3263   -2.3661   -1.6705 H   0  0  0  0  0  0  0  0  0  0  0  0
    1.8632   -2.7786   -0.7870 H   0  0  0  0  0  0  0  0  0  0  0  0
    3.3201   -3.7482   -0.5703 H   0  0  0  0  0  0  0  0  0  0  0  0
    2.8256   -2.3964    1.7532 C   0  0  0  0  0  0  0  0  0  0  0  0
    3.3596   -3.3078    2.0144 H   0  0  0  0  0  0  0  0  0  0  0  0
    2.9528   -1.6789    2.5609 H   0  0  0  0  0  0  0  0  0  0  0  0
    1.7705   -2.6437    1.6765 H   0  0  0  0  0  0  0  0  0  0  0  0
    0.8651   -1.0292    0.6215 H   0  0  0  0  0  0  0  0  0  0  0  0
   -0.5229    1.3147    0.3056 C   0  0  0  0  0  0  0  0  0  0  0  0
   -0.9478    2.3627    0.7407 O   0  0  0  0  0  0  0  0  0  0  0  0
   -1.3157    0.2700   -0.1054 N   0  0  0  0  0  0  0  0  0  0  0  0
   -2.7002    0.1586   -0.0888 C   0  0  0  0  0  0  0  0  0  0  0  0
   -3.2650   -0.9967   -0.6381 C   0  0  0  0  0  0  0  0  0  0  0  0
   -4.6299   -1.1751   -0.6486 C   0  0  0  0  0  0  0  0  0  0  0  0
   -5.4641   -0.1980   -0.1068 C   0  0  0  0  0  0  0  0  0  0  0  0
   -4.9001    0.9535    0.4420 C   0  0  0  0  0  0  0  0  0  0  0  0
   -3.5345    1.1364    0.4546 C   0  0  0  0  0  0  0  0  0  0  0  0
   -3.1022    2.0279    0.8766 H   0  0  0  0  0  0  0  0  0  0  0  0
   -5.5580    1.7010    0.8582 H   0  0  0  0  0  0  0  0  0  0  0  0
   -6.9293   -0.3467   -0.0974 C   0  0  0  0  0  0  0  0  0  0  0  0
   -7.7038    0.4598    0.3573 O   0  0  0  0  0  0  0  0  0  0  0  0
   -7.3569   -1.4954   -0.6562 O   0  0  0  0  0  0  0  0  0  0  0  0
   -8.3250   -1.5283   -0.6178 H   0  0  0  0  0  0  0  0  0  0  0  0
   -5.0606   -2.0676   -1.0743 H   0  0  0  0  0  0  0  0  0  0  0  0
   -2.6196   -1.7557   -1.0594 H   0  0  0  0  0  0  0  0  0  0  0  0
   -0.8345   -0.5151   -0.5231 H   0  0  0  0  0  0  0  0  0  0  0  0
    1.3407    3.1037   -0.2702 H   0  0  0  0  0  0  0  0  0  0  0  0
    3.7427    2.7409   -0.5906 H   0  0  0  0  0  0  0  0  0  0  0  0
    5.5904    1.1714   -1.7381 C   0  0  0  0  0  0  0  0  0  0  0  0
    5.5306    2.2537   -1.6732 H   0  0  0  0  0  0  0  0  0  0  0  0
    4.9529    0.8399   -2.5552 H   0  0  0  0  0  0  0  0  0  0  0  0
    6.6194    0.9088   -1.9755 H   0  0  0  0  0  0  0  0  0  0  0  0
  1  2  1  0
  1  3  1  0
  1  4  1  0
  5  1  1  1
  5  6  1  0
  5 14  1  0
  5 48  1  0
  6  7  1  0
  6 11  2  0
  7  8  2  0
  7 47  1  0
  8  9  1  0
  8 46  1  0
  9 10  2  0
  9 28  1  0
 10 11  1  0
 10 27  1  0
 11 12  1  0
 12 13  1  0
 12 19  1  6
 12 23  1  0
 13 14  1  0
 13 17  1  0
 13 18  1  0
 14 15  1  0
 14 16  1  0
 19 20  1  0
 19 21  1  0
 19 22  1  0
 23 24  1  0
 23 25  1  0
 23 26  1  0
 28 29  2  0
 28 30  1  0
 30 31  1  0
 30 45  1  0
 31 32  2  0
 31 36  1  0
 32 33  1  0
 32 44  1  0
 33 34  2  0
 33 43  1  0
 34 35  1  0
 34 39  1  0
 35 36  2  0
 35 38  1  0
 36 37  1  0
 39 40  2  0
 39 41  1  0
 41 42  1  0
 48 49  1  0
 48 50  1  0
 48 51  1  0
M  END
$$$$

     RDKit          3D

 51 53  0  0  0  0  0  0  0  0999 V2000
   -3.3033   -2.2578    2.3261 C   0  0  0  0  0  0  0  0  0  0  0  0
   -2.4030   -2.6148    2.8175 H   0  0  0  0  0  0  0  0  0  0  0  0
   -4.0614   -3.0328    2.4198 H   0  0  0  0  0  0  0  0  0  0  0  0
   -3.6525   -1.3692    2.8478 H   0  0  0  0  0  0  0  0  0  0  0  0
   -3.0650   -1.9510    0.8396 C   0  0  2  0  0  0  0  0  0  0  0  0
   -2.2224   -0.7009    0.6722 C   0  0  0  0  0  0  0  0  0  0  0  0
   -1.0746   -0.5685    1.4537 C   0  0  0  0  0  0  0  0  0  0  0  0
   -0.2451    0.5271    1.3634 C   0  0  0  0  0  0  0  0  0  0  0  0
   -0.5625    1.5446    0.4696 C   0  0  0  0  0  0  0  0  0  0  0  0
   -1.7093    1.4299   -0.3003 C   0  0  0  0  0  0  0  0  0  0  0  0
   -2.5329    0.3107   -0.2408 C   0  0  0  0  0  0  0  0  0  0  0  0
   -3.7469    0.2684   -1.1499 C   0  0  2  0  0  0  0  0  0  0  0  0
   -4.3374   -1.1457   -1.1981 C   0  0  0  0  0  0  0  0  0  0  0  0
   -4.4385   -1.7710    0.1822 C   0  0  0  0  0  0  0  0  0  0  0  0
   -4.9297   -2.7439    0.1094 H   0  0  0  0  0  0  0  0  0  0  0  0
   -5.0574   -1.1393    0.8219 H   0  0  0  0  0  0  0  0  0  0  0  0
   -5.3284   -1.1036   -1.6554 H   0  0  0  0  0  0  0  0  0  0  0  0
   -3.7101   -1.7718   -1.8353 H   0  0  0  0  0  0  0  0  0  0  0  0
   -3.3662    0.6599   -2.5857 C   0  0  0  0  0  0  0  0  0  0  0  0
   -2.5077    0.0834   -2.9246 H   0  0  0  0  0  0  0  0  0  0  0  0
   -3.1271    1.7159   -2.6686 H   0  0  0  0  0  0  0  0  0  0  0  0
   -4.2020    0.4553   -3.2519 H   0  0  0  0  0  0  0  0  0  0  0  0
   -4.7850    1.2677   -0.6206 C   0  0  0  0  0  0  0  0  0  0  0  0
   -4.3681    2.2714   -0.5952 H   0  0  0  0  0  0  0  0  0  0  0  0
   -5.6628    1.2738   -1.2634 H   0  0  0  0  0  0  0  0  0  0  0  0
   -5.0950    1.0102    0.3889 H   0  0  0  0  0  0  0  0  0  0  0  0
   -1.9442    2.2450   -0.9666 H   0  0  0  0  0  0  0  0  0  0  0  0
    0.2390    2.7895    0.3852 C   0  0  0  0  0  0  0  0  0  0  0  0
   -0.2601    3.8958    0.3686 O   0  0  0  0  0  0  0  0  0  0  0  0
    1.6089    2.6653    0.3972 N   0  0  0  0  0  0  0  0  0  0  0  0
    2.4231    1.5675    0.1535 C   0  0  0  0  0  0  0  0  0  0  0  0
    2.0194    0.4979   -0.6492 C   0  0  0  0  0  0  0  0  0  0  0  0
    2.8713   -0.5628   -0.8619 C   0  0  0  0  0  0  0  0  0  0  0  0
    4.1473   -0.5777   -0.2985 C   0  0  0  0  0  0  0  0  0  0  0  0
    4.5647    0.5046    0.4743 C   0  0  0  0  0  0  0  0  0  0  0  0
    3.7126    1.5646    0.6928 C   0  0  0  0  0  0  0  0  0  0  0  0
    4.0359    2.4036    1.2922 H   0  0  0  0  0  0  0  0  0  0  0  0
    5.5555    0.5043    0.9001 H   0  0  0  0  0  0  0  0  0  0  0  0
    5.0211   -1.7366   -0.5539 C   0  0  0  0  0  0  0  0  0  0  0  0
    4.7084   -2.7056   -1.2023 O   0  0  0  0  0  0  0  0  0  0  0  0
    6.2365   -1.6273    0.0121 O   0  0  0  0  0  0  0  0  0  0  0  0
    6.7598   -2.4174   -0.1931 H   0  0  0  0  0  0  0  0  0  0  0  0
    2.5705   -1.3960   -1.4783 H   0  0  0  0  0  0  0  0  0  0  0  0
    1.0451    0.5084   -1.1102 H   0  0  0  0  0  0  0  0  0  0  0  0
    2.0899    3.5412    0.5692 H   0  0  0  0  0  0  0  0  0  0  0  0
    0.6289    0.6004    1.9936 H   0  0  0  0  0  0  0  0  0  0  0  0
   -0.8189   -1.3452    2.1569 H   0  0  0  0  0  0  0  0  0  0  0  0
   -2.3146   -3.1296    0.2023 C   0  0  0  0  0  0  0  0  0  0  0  0
   -2.8881   -4.0468    0.3190 H   0  0  0  0  0  0  0  0  0  0  0  0
   -1.3456   -3.2657    0.6764 H   0  0  0  0  0  0  0  0  0  0  0  0
   -2.1460   -2.9579   -0.8576 H   0  0  0  0  0  0  0  0  0  0  0  0
  1  2  1  0
  1  3  1  0
  1  4  1  0
  5  1  1  1
  5  6  1  0
  5 14  1  0
  5 48  1  0
  6  7  1  0
  6 11  2  0
  7  8  2  0
  7 47  1  0
  8  9  1  0
  8 46  1  0
  9 10  2  0
  9 28  1  0
 10 11  1  0
 10 27  1  0
 11 12  1  0
 12 13  1  0
 12 19  1  6
 12 23  1  0
 13 14  1  0
 13 17  1  0
 13 18  1  0
 14 15  1  0
 14 16  1  0
 19 20  1  0
 19 21  1  0
 19 22  1  0
 23 24  1  0
 23 25  1  0
 23 26  1  0
 28 29  2  0
 28 30  1  0
 30 31  1  0
 30 45  1  0
 31 32  2  0
 31 36  1  0
 32 33  1  0
 32 44  1  0
 33 34  2  0
 33 43  1  0
 34 35  1  0
 34 39  1  0
 35 36  2  0
 35 38  1  0
 36 37  1  0
 39 40  2  0
 39 41  1  0
 41 42  1  0
 48 49  1  0
 48 50  1  0
 48 51  1  0
M  END
$$$$
