
     RDKit          3D

 15 16  0  0  0  0  0  0  0  0999 V2000
   -2.4789   -1.2523   -0.0058 C   0  0  0  0  0  0  0  0  0  0  0  0
   -1.3317   -0.3092    0.0075 C   0  0  0  0  0  0  0  0  0  0  0  0
    0.0388   -0.4835    0.0015 C   0  0  0  0  0  0  0  0  0  0  0  0
    1.0902   -1.3431    0.0031 N   0  0  0  0  0  0  0  0  0  0  0  0
    2.2545   -0.6643   -0.0004 N   0  0  0  0  0  0  0  0  0  0  0  0
    1.9987    0.6200   -0.0033 C   0  0  0  0  0  0  0  0  0  0  0  0
    0.5993    0.8335   -0.0022 C   0  0  0  0  0  0  0  0  0  0  0  0
   -0.3619    1.7556   -0.0012 N   0  0  0  0  0  0  0  0  0  0  0  0
   -1.4874    1.0446    0.0027 N   0  0  0  0  0  0  0  0  0  0  0  0
   -2.3709    1.5327    0.0043 H   0  0  0  0  0  0  0  0  0  0  0  0
    2.7965    1.3336   -0.0058 H   0  0  0  0  0  0  0  0  0  0  0  0
    1.1013   -2.3479    0.0019 H   0  0  0  0  0  0  0  0  0  0  0  0
   -3.3539   -0.7931    0.4501 H   0  0  0  0  0  0  0  0  0  0  0  0
   -2.7356   -1.5388   -1.0272 H   0  0  0  0  0  0  0  0  0  0  0  0
   -2.2295   -2.1559    0.5461 H   0  0  0  0  0  0  0  0  0  0  0  0
  1  2  1  0
  1 13  1  0
  1 14  1  0
  1 15  1  0
  2  3  2  0
  2  9  1  0
  3  4  1  0
  3  7  1  0
  4  5  1  0
  4 12  1  0
  5  6  2  0
  6  7  1  0
  6 11  1  0
  7  8  2  0
  8  9  1  0
  9 10  1  0
M  END
$$$$
