
     RDKit          3D

 30 32  0  0  0  0  0  0  0  0999 V2000
    0.1434    1.8150   -0.1615 O   0  0  0  0  0  0  0  0  0  0  0  0
   -0.2493    0.6490   -0.0384 C   0  0  0  0  0  0  0  0  0  0  0  0
   -1.6619    0.3077   -0.0224 C   0  0  0  0  0  0  0  0  0  0  0  0
   -2.0828   -1.0247    0.1147 C   0  0  0  0  0  0  0  0  0  0  0  0
   -3.4271   -1.3625    0.1314 C   0  0  0  0  0  0  0  0  0  0  0  0
   -4.3799   -0.3584    0.0082 C   0  0  0  0  0  0  0  0  0  0  0  0
   -3.9911    0.9704   -0.1308 C   0  0  0  0  0  0  0  0  0  0  0  0
   -2.6484    1.3193   -0.1487 C   0  0  0  0  0  0  0  0  0  0  0  0
   -2.3094    2.5985   -0.2836 O   0  0  0  0  0  0  0  0  0  0  0  0
   -1.3131    2.6421   -0.2781 H   0  0  0  0  0  0  0  0  0  0  0  0
   -4.7262    1.7556   -0.2283 H   0  0  0  0  0  0  0  0  0  0  0  0
   -5.6815   -0.7166    0.0278 O   0  0  0  0  0  0  0  0  0  0  0  0
   -6.2419    0.0641   -0.0666 H   0  0  0  0  0  0  0  0  0  0  0  0
   -3.7308   -2.3892    0.2382 H   0  0  0  0  0  0  0  0  0  0  0  0
   -1.1841   -2.0308    0.2380 O   0  0  0  0  0  0  0  0  0  0  0  0
    0.1180   -1.7336    0.2175 C   0  0  0  0  0  0  0  0  0  0  0  0
    0.6522   -0.4984    0.0877 C   0  0  0  0  0  0  0  0  0  0  0  0
    2.1078   -0.3053    0.0550 C   0  0  0  0  0  0  0  0  0  0  0  0
    2.6992    0.7756    0.7022 C   0  0  0  0  0  0  0  0  0  0  0  0
    4.0683    0.9537    0.6672 C   0  0  0  0  0  0  0  0  0  0  0  0
    4.8759    0.0560   -0.0205 C   0  0  0  0  0  0  0  0  0  0  0  0
    4.2921   -1.0254   -0.6756 C   0  0  0  0  0  0  0  0  0  0  0  0
    2.9257   -1.1994   -0.6361 C   0  0  0  0  0  0  0  0  0  0  0  0
    2.4819   -2.0278   -1.1679 H   0  0  0  0  0  0  0  0  0  0  0  0
    4.9277   -1.7104   -1.2137 H   0  0  0  0  0  0  0  0  0  0  0  0
    6.2263    0.1939   -0.0815 O   0  0  0  0  0  0  0  0  0  0  0  0
    6.4962    0.9880    0.3956 H   0  0  0  0  0  0  0  0  0  0  0  0
    4.5154    1.7973    1.1766 H   0  0  0  0  0  0  0  0  0  0  0  0
    2.0864    1.4811    1.2392 H   0  0  0  0  0  0  0  0  0  0  0  0
    0.7274   -2.6193    0.3360 H   0  0  0  0  0  0  0  0  0  0  0  0
  1  2  2  0
  2  3  1  0
  2 17  1  0
  3  4  2  0
  3  8  1  0
  4  5  1  0
  4 15  1  0
  5  6  2  0
  5 14  1  0
  6  7  1  0
  6 12  1  0
  7  8  2  0
  7 11  1  0
  8  9  1  0
  9 10  1  0
 12 13  1  0
 15 16  1  0
 16 17  2  0
 16 30  1  0
 17 18  1  0
 18 19  2  0
 18 23  1  0
 19 20  1  0
 19 29  1  0
 20 21  2  0
 20 28  1  0
 21 22  1  0
 21 26  1  0
 22 23  2  0
 22 25  1  0
 23 24  1  0
 26 27  1  0
M  END
$$$$

     RDKit          3D

 30 32  0  0  0  0  0  0  0  0999 V2000
   -0.1375   -1.8179    0.1855 O   0  0  0  0  0  0  0  0  0  0  0  0
    0.2519   -0.6524    0.0529 C   0  0  0  0  0  0  0  0  0  0  0  0
    1.6637   -0.3076    0.0273 C   0  0  0  0  0  0  0  0  0  0  0  0
    2.0809    1.0256   -0.1113 C   0  0  0  0  0  0  0  0  0  0  0  0
    3.4241    1.3671   -0.1333 C   0  0  0  0  0  0  0  0  0  0  0  0
    4.3801    0.3651   -0.0174 C   0  0  0  0  0  0  0  0  0  0  0  0
    3.9951   -0.9651    0.1191 C   0  0  0  0  0  0  0  0  0  0  0  0
    2.6533   -1.3173    0.1452 C   0  0  0  0  0  0  0  0  0  0  0  0
    2.3183   -2.5973    0.2798 O   0  0  0  0  0  0  0  0  0  0  0  0
    1.3220   -2.6438    0.2834 H   0  0  0  0  0  0  0  0  0  0  0  0
    4.7328   -1.7488    0.2087 H   0  0  0  0  0  0  0  0  0  0  0  0
    5.6807    0.7267   -0.0418 O   0  0  0  0  0  0  0  0  0  0  0  0
    6.2437   -0.0531    0.0460 H   0  0  0  0  0  0  0  0  0  0  0  0
    3.7245    2.3948   -0.2394 H   0  0  0  0  0  0  0  0  0  0  0  0
    1.1792    2.0298   -0.2308 O   0  0  0  0  0  0  0  0  0  0  0  0
   -0.1221    1.7284   -0.2091 C   0  0  0  0  0  0  0  0  0  0  0  0
   -0.6531    0.4924   -0.0756 C   0  0  0  0  0  0  0  0  0  0  0  0
   -2.1086    0.2967   -0.0455 C   0  0  0  0  0  0  0  0  0  0  0  0
   -2.7002   -0.7848   -0.6963 C   0  0  0  0  0  0  0  0  0  0  0  0
   -4.0674   -0.9604   -0.6737 C   0  0  0  0  0  0  0  0  0  0  0  0
   -4.8783   -0.0575    0.0075 C   0  0  0  0  0  0  0  0  0  0  0  0
   -4.2960    1.0181    0.6690 C   0  0  0  0  0  0  0  0  0  0  0  0
   -2.9264    1.1906    0.6413 C   0  0  0  0  0  0  0  0  0  0  0  0
   -2.4858    2.0178    1.1781 H   0  0  0  0  0  0  0  0  0  0  0  0
   -4.9191    1.7177    1.2113 H   0  0  0  0  0  0  0  0  0  0  0  0
   -6.2214   -0.2628    0.0030 O   0  0  0  0  0  0  0  0  0  0  0  0
   -6.6619    0.4270    0.5141 H   0  0  0  0  0  0  0  0  0  0  0  0
   -4.5301   -1.7933   -1.1782 H   0  0  0  0  0  0  0  0  0  0  0  0
   -2.0838   -1.4918   -1.2270 H   0  0  0  0  0  0  0  0  0  0  0  0
   -0.7337    2.6124   -0.3303 H   0  0  0  0  0  0  0  0  0  0  0  0
  1  2  2  0
  2  3  1  0
  2 17  1  0
  3  4  2  0
  3  8  1  0
  4  5  1  0
  4 15  1  0
  5  6  2  0
  5 14  1  0
  6  7  1  0
  6 12  1  0
  7  8  2  0
  7 11  1  0
  8  9  1  0
  9 10  1  0
 12 13  1  0
 15 16  1  0
 16 17  2  0
 16 30  1  0
 17 18  1  0
 18 19  2  0
 18 23  1  0
 19 20  1  0
 19 29  1  0
 20 21  2  0
 20 28  1  0
 21 22  1  0
 21 26  1  0
 22 23  2  0
 22 25  1  0
 23 24  1  0
 26 27  1  0
M  END
$$$$

     RDKit          3D

 30 32  0  0  0  0  0  0  0  0999 V2000
   -0.1426   -1.8218    0.1538 O   0  0  0  0  0  0  0  0  0  0  0  0
    0.2514   -0.6562    0.0341 C   0  0  0  0  0  0  0  0  0  0  0  0
    1.6634   -0.3130    0.0207 C   0  0  0  0  0  0  0  0  0  0  0  0
    2.0790    1.0193   -0.1200 C   0  0  0  0  0  0  0  0  0  0  0  0
    3.4244    1.3595   -0.1362 C   0  0  0  0  0  0  0  0  0  0  0  0
    4.3803    0.3597   -0.0069 C   0  0  0  0  0  0  0  0  0  0  0  0
    3.9960   -0.9703    0.1377 C   0  0  0  0  0  0  0  0  0  0  0  0
    2.6556   -1.3212    0.1527 C   0  0  0  0  0  0  0  0  0  0  0  0
    2.3166   -2.5997    0.2913 O   0  0  0  0  0  0  0  0  0  0  0  0
    1.3219   -2.6485    0.2811 H   0  0  0  0  0  0  0  0  0  0  0  0
    4.7481   -1.7341    0.2391 H   0  0  0  0  0  0  0  0  0  0  0  0
    5.7015    0.6370   -0.0156 O   0  0  0  0  0  0  0  0  0  0  0  0
    5.8442    1.5863   -0.1200 H   0  0  0  0  0  0  0  0  0  0  0  0
    3.7030    2.3957   -0.2486 H   0  0  0  0  0  0  0  0  0  0  0  0
    1.1807    2.0258   -0.2461 O   0  0  0  0  0  0  0  0  0  0  0  0
   -0.1220    1.7271   -0.2209 C   0  0  0  0  0  0  0  0  0  0  0  0
   -0.6522    0.4911   -0.0886 C   0  0  0  0  0  0  0  0  0  0  0  0
   -2.1080    0.2987   -0.0510 C   0  0  0  0  0  0  0  0  0  0  0  0
   -2.7050   -0.7685   -0.7163 C   0  0  0  0  0  0  0  0  0  0  0  0
   -4.0752   -0.9385   -0.6835 C   0  0  0  0  0  0  0  0  0  0  0  0
   -4.8768   -0.0488    0.0217 C   0  0  0  0  0  0  0  0  0  0  0  0
   -4.2860    1.0152    0.6990 C   0  0  0  0  0  0  0  0  0  0  0  0
   -2.9191    1.1823    0.6597 C   0  0  0  0  0  0  0  0  0  0  0  0
   -2.4693    1.9978    1.2072 H   0  0  0  0  0  0  0  0  0  0  0  0
   -4.9173    1.6920    1.2531 H   0  0  0  0  0  0  0  0  0  0  0  0
   -6.2284   -0.1780    0.0792 O   0  0  0  0  0  0  0  0  0  0  0  0
   -6.5046   -0.9590   -0.4160 H   0  0  0  0  0  0  0  0  0  0  0  0
   -4.5281   -1.7687   -1.2089 H   0  0  0  0  0  0  0  0  0  0  0  0
   -2.0958   -1.4669   -1.2660 H   0  0  0  0  0  0  0  0  0  0  0  0
   -0.7332    2.6116   -0.3376 H   0  0  0  0  0  0  0  0  0  0  0  0
  1  2  2  0
  2  3  1  0
  2 17  1  0
  3  4  2  0
  3  8  1  0
  4  5  1  0
  4 15  1  0
  5  6  2  0
  5 14  1  0
  6  7  1  0
  6 12  1  0
  7  8  2  0
  7 11  1  0
  8  9  1  0
  9 10  1  0
 12 13  1  0
 15 16  1  0
 16 17  2  0
 16 30  1  0
 17 18  1  0
 18 19  2  0
 18 23  1  0
 19 20  1  0
 19 29  1  0
 20 21  2  0
 20 28  1  0
 21 22  1  0
 21 26  1  0
 22 23  2  0
 22 25  1  0
 23 24  1  0
 26 27  1  0
M  END
$$$$

     RDKit          3D

 30 32  0  0  0  0  0  0  0  0999 V2000
   -0.1512   -1.8115   -0.1417 O   0  0  0  0  0  0  0  0  0  0  0  0
    0.2473   -0.6482   -0.0227 C   0  0  0  0  0  0  0  0  0  0  0  0
    1.6609   -0.3103   -0.0164 C   0  0  0  0  0  0  0  0  0  0  0  0
    2.0822    1.0200    0.1202 C   0  0  0  0  0  0  0  0  0  0  0  0
    3.4292    1.3547    0.1286 C   0  0  0  0  0  0  0  0  0  0  0  0
    4.3802    0.3506   -0.0055 C   0  0  0  0  0  0  0  0  0  0  0  0
    3.9898   -0.9778   -0.1474 C   0  0  0  0  0  0  0  0  0  0  0  0
    2.6475   -1.3236   -0.1536 C   0  0  0  0  0  0  0  0  0  0  0  0
    2.3028   -2.6003   -0.2882 O   0  0  0  0  0  0  0  0  0  0  0  0
    1.3076   -2.6454   -0.2719 H   0  0  0  0  0  0  0  0  0  0  0  0
    4.7378   -1.7450   -0.2534 H   0  0  0  0  0  0  0  0  0  0  0  0
    5.7026    0.6220   -0.0039 O   0  0  0  0  0  0  0  0  0  0  0  0
    5.8505    1.5701    0.1035 H   0  0  0  0  0  0  0  0  0  0  0  0
    3.7137    2.3902    0.2383 H   0  0  0  0  0  0  0  0  0  0  0  0
    1.1885    2.0305    0.2503 O   0  0  0  0  0  0  0  0  0  0  0  0
   -0.1158    1.7365    0.2327 C   0  0  0  0  0  0  0  0  0  0  0  0
   -0.6512    0.5027    0.1048 C   0  0  0  0  0  0  0  0  0  0  0  0
   -2.1069    0.3099    0.0680 C   0  0  0  0  0  0  0  0  0  0  0  0
   -2.7053   -0.7609    0.7299 C   0  0  0  0  0  0  0  0  0  0  0  0
   -4.0712   -0.9426    0.6860 C   0  0  0  0  0  0  0  0  0  0  0  0
   -4.8726   -0.0587   -0.0306 C   0  0  0  0  0  0  0  0  0  0  0  0
   -4.2834    1.0091   -0.6985 C   0  0  0  0  0  0  0  0  0  0  0  0
   -2.9155    1.1897   -0.6468 C   0  0  0  0  0  0  0  0  0  0  0  0
   -2.4683    2.0106   -1.1879 H   0  0  0  0  0  0  0  0  0  0  0  0
   -4.8993    1.6948   -1.2662 H   0  0  0  0  0  0  0  0  0  0  0  0
   -6.2138   -0.2745   -0.0533 O   0  0  0  0  0  0  0  0  0  0  0  0
   -6.6467    0.3984   -0.5925 H   0  0  0  0  0  0  0  0  0  0  0  0
   -4.5400   -1.7673    1.1982 H   0  0  0  0  0  0  0  0  0  0  0  0
   -2.0954   -1.4550    1.2846 H   0  0  0  0  0  0  0  0  0  0  0  0
   -0.7221    2.6243    0.3511 H   0  0  0  0  0  0  0  0  0  0  0  0
  1  2  2  0
  2  3  1  0
  2 17  1  0
  3  4  2  0
  3  8  1  0
  4  5  1  0
  4 15  1  0
  5  6  2  0
  5 14  1  0
  6  7  1  0
  6 12  1  0
  7  8  2  0
  7 11  1  0
  8  9  1  0
  9 10  1  0
 12 13  1  0
 15 16  1  0
 16 17  2  0
 16 30  1  0
 17 18  1  0
 18 19  2  0
 18 23  1  0
 19 20  1  0
 19 29  1  0
 20 21  2  0
 20 28  1  0
 21 22  1  0
 21 26  1  0
 22 23  2  0
 22 25  1  0
 23 24  1  0
 26 27  1  0
M  END
$$$$

     RDKit          3D

 30 32  0  0  0  0  0  0  0  0999 V2000
   -0.1512   -1.8295   -0.0212 O   0  0  0  0  0  0  0  0  0  0  0  0
    0.2470   -0.6621   -0.1008 C   0  0  0  0  0  0  0  0  0  0  0  0
    1.6586   -0.3202   -0.0536 C   0  0  0  0  0  0  0  0  0  0  0  0
    2.0816    1.0107   -0.1779 C   0  0  0  0  0  0  0  0  0  0  0  0
    3.4238    1.3538   -0.0974 C   0  0  0  0  0  0  0  0  0  0  0  0
    4.3684    0.3580    0.1174 C   0  0  0  0  0  0  0  0  0  0  0  0
    3.9777   -0.9718    0.2353 C   0  0  0  0  0  0  0  0  0  0  0  0
    2.6410   -1.3277    0.1476 C   0  0  0  0  0  0  0  0  0  0  0  0
    2.2958   -2.6062    0.2617 O   0  0  0  0  0  0  0  0  0  0  0  0
    1.3046   -2.6579    0.1824 H   0  0  0  0  0  0  0  0  0  0  0  0
    4.7211   -1.7331    0.3988 H   0  0  0  0  0  0  0  0  0  0  0  0
    5.6844    0.6409    0.2224 O   0  0  0  0  0  0  0  0  0  0  0  0
    5.8316    1.5912    0.1328 H   0  0  0  0  0  0  0  0  0  0  0  0
    3.7078    2.3908   -0.1957 H   0  0  0  0  0  0  0  0  0  0  0  0
    1.1927    2.0145   -0.3751 O   0  0  0  0  0  0  0  0  0  0  0  0
   -0.1117    1.7220   -0.3678 C   0  0  0  0  0  0  0  0  0  0  0  0
   -0.6502    0.4910   -0.2223 C   0  0  0  0  0  0  0  0  0  0  0  0
   -2.1048    0.3096   -0.1333 C   0  0  0  0  0  0  0  0  0  0  0  0
   -2.7447   -0.7688   -0.7416 C   0  0  0  0  0  0  0  0  0  0  0  0
   -4.1069   -0.9436   -0.6123 C   0  0  0  0  0  0  0  0  0  0  0  0
   -4.8609   -0.0447    0.1349 C   0  0  0  0  0  0  0  0  0  0  0  0
   -4.2310    1.0353    0.7436 C   0  0  0  0  0  0  0  0  0  0  0  0
   -2.8685    1.2075    0.6093 C   0  0  0  0  0  0  0  0  0  0  0  0
   -2.3864    2.0350    1.1094 H   0  0  0  0  0  0  0  0  0  0  0  0
   -4.8100    1.7357    1.3320 H   0  0  0  0  0  0  0  0  0  0  0  0
   -6.1985   -0.2563    0.2478 O   0  0  0  0  0  0  0  0  0  0  0  0
   -6.5944    0.4248    0.8050 H   0  0  0  0  0  0  0  0  0  0  0  0
   -4.6081   -1.7768   -1.0794 H   0  0  0  0  0  0  0  0  0  0  0  0
   -2.1706   -1.4755   -1.3186 H   0  0  0  0  0  0  0  0  0  0  0  0
   -0.7157    2.6079   -0.5082 H   0  0  0  0  0  0  0  0  0  0  0  0
  1  2  2  0
  2  3  1  0
  2 17  1  0
  3  4  2  0
  3  8  1  0
  4  5  1  0
  4 15  1  0
  5  6  2  0
  5 14  1  0
  6  7  1  0
  6 12  1  0
  7  8  2  0
  7 11  1  0
  8  9  1  0
  9 10  1  0
 12 13  1  0
 15 16  1  0
 16 17  2  0
 16 30  1  0
 17 18  1  0
 18 19  2  0
 18 23  1  0
 19 20  1  0
 19 29  1  0
 20 21  2  0
 20 28  1  0
 21 22  1  0
 21 26  1  0
 22 23  2  0
 22 25  1  0
 23 24  1  0
 26 27  1  0
M  END
$$$$

     RDKit          3D

 30 32  0  0  0  0  0  0  0  0999 V2000
   -0.0772   -1.8506   -0.2186 O   0  0  0  0  0  0  0  0  0  0  0  0
    0.2707   -0.6647   -0.1022 C   0  0  0  0  0  0  0  0  0  0  0  0
    1.6801   -0.3091   -0.0371 C   0  0  0  0  0  0  0  0  0  0  0  0
    2.0878    1.0334    0.0296 C   0  0  0  0  0  0  0  0  0  0  0  0
    3.4238    1.3940    0.0641 C   0  0  0  0  0  0  0  0  0  0  0  0
    4.3927    0.3963    0.0497 C   0  0  0  0  0  0  0  0  0  0  0  0
    4.0204   -0.9441    0.0048 C   0  0  0  0  0  0  0  0  0  0  0  0
    2.6817   -1.3112   -0.0473 C   0  0  0  0  0  0  0  0  0  0  0  0
    2.3713   -2.6005   -0.1071 O   0  0  0  0  0  0  0  0  0  0  0  0
    1.3782   -2.6579   -0.1559 H   0  0  0  0  0  0  0  0  0  0  0  0
    4.7627   -1.7271   -0.0041 H   0  0  0  0  0  0  0  0  0  0  0  0
    5.6885    0.7648    0.0889 O   0  0  0  0  0  0  0  0  0  0  0  0
    6.2628   -0.0113    0.0823 H   0  0  0  0  0  0  0  0  0  0  0  0
    3.7048    2.4322    0.1049 H   0  0  0  0  0  0  0  0  0  0  0  0
    1.1672    2.0262    0.0750 O   0  0  0  0  0  0  0  0  0  0  0  0
   -0.1261    1.7067    0.0768 C   0  0  0  0  0  0  0  0  0  0  0  0
   -0.6617    0.4667   -0.0121 C   0  0  0  0  0  0  0  0  0  0  0  0
   -2.1213    0.2808   -0.0114 C   0  0  0  0  0  0  0  0  0  0  0  0
   -2.9872    1.3399   -0.2939 C   0  0  0  0  0  0  0  0  0  0  0  0
   -4.3599    1.1799   -0.2551 C   0  0  0  0  0  0  0  0  0  0  0  0
   -4.9178   -0.0611    0.0423 C   0  0  0  0  0  0  0  0  0  0  0  0
   -4.0709   -1.1301    0.3006 C   0  0  0  0  0  0  0  0  0  0  0  0
   -2.7012   -0.9552    0.2835 C   0  0  0  0  0  0  0  0  0  0  0  0
   -2.0723   -1.8049    0.4872 H   0  0  0  0  0  0  0  0  0  0  0  0
   -4.4956   -2.0973    0.5182 H   0  0  0  0  0  0  0  0  0  0  0  0
   -6.2581   -0.2614    0.0877 O   0  0  0  0  0  0  0  0  0  0  0  0
   -6.7214    0.5628   -0.1051 H   0  0  0  0  0  0  0  0  0  0  0  0
   -5.0054    2.0254   -0.4584 H   0  0  0  0  0  0  0  0  0  0  0  0
   -2.6017    2.3131   -0.5585 H   0  0  0  0  0  0  0  0  0  0  0  0
   -0.7302    2.6013    0.1667 H   0  0  0  0  0  0  0  0  0  0  0  0
  1  2  2  0
  2  3  1  0
  2 17  1  0
  3  4  2  0
  3  8  1  0
  4  5  1  0
  4 15  1  0
  5  6  2  0
  5 14  1  0
  6  7  1  0
  6 12  1  0
  7  8  2  0
  7 11  1  0
  8  9  1  0
  9 10  1  0
 12 13  1  0
 15 16  1  0
 16 17  2  0
 16 30  1  0
 17 18  1  0
 18 19  2  0
 18 23  1  0
 19 20  1  0
 19 29  1  0
 20 21  2  0
 20 28  1  0
 21 22  1  0
 21 26  1  0
 22 23  2  0
 22 25  1  0
 23 24  1  0
 26 27  1  0
M  END
$$$$

     RDKit          3D

 30 32  0  0  0  0  0  0  0  0999 V2000
   -0.0624   -1.8616   -0.0689 O   0  0  0  0  0  0  0  0  0  0  0  0
    0.2735   -0.6697   -0.0437 C   0  0  0  0  0  0  0  0  0  0  0  0
    1.6833   -0.3096   -0.0203 C   0  0  0  0  0  0  0  0  0  0  0  0
    2.0928    1.0316   -0.0189 C   0  0  0  0  0  0  0  0  0  0  0  0
    3.4302    1.3940    0.0066 C   0  0  0  0  0  0  0  0  0  0  0  0
    4.3979    0.3979    0.0371 C   0  0  0  0  0  0  0  0  0  0  0  0
    4.0250   -0.9425    0.0352 C   0  0  0  0  0  0  0  0  0  0  0  0
    2.6883   -1.3135    0.0031 C   0  0  0  0  0  0  0  0  0  0  0  0
    2.3808   -2.6069   -0.0021 O   0  0  0  0  0  0  0  0  0  0  0  0
    1.3851   -2.6682   -0.0313 H   0  0  0  0  0  0  0  0  0  0  0  0
    4.7698   -1.7243    0.0575 H   0  0  0  0  0  0  0  0  0  0  0  0
    5.6943    0.7731    0.0680 O   0  0  0  0  0  0  0  0  0  0  0  0
    6.2648   -0.0058    0.0893 H   0  0  0  0  0  0  0  0  0  0  0  0
    3.7146    2.4317    0.0058 H   0  0  0  0  0  0  0  0  0  0  0  0
    1.1754    2.0237   -0.0427 O   0  0  0  0  0  0  0  0  0  0  0  0
   -0.1194    1.7079   -0.0421 C   0  0  0  0  0  0  0  0  0  0  0  0
   -0.6656    0.4640   -0.0348 C   0  0  0  0  0  0  0  0  0  0  0  0
   -2.1297    0.2861   -0.0168 C   0  0  0  0  0  0  0  0  0  0  0  0
   -2.7118   -0.9833   -0.0018 C   0  0  0  0  0  0  0  0  0  0  0  0
   -4.0820   -1.1531    0.0223 C   0  0  0  0  0  0  0  0  0  0  0  0
   -4.9299   -0.0549    0.0325 C   0  0  0  0  0  0  0  0  0  0  0  0
   -4.3706    1.2199    0.0184 C   0  0  0  0  0  0  0  0  0  0  0  0
   -3.0035    1.3817   -0.0053 C   0  0  0  0  0  0  0  0  0  0  0  0
   -2.6301    2.3924   -0.0140 H   0  0  0  0  0  0  0  0  0  0  0  0
   -5.0285    2.0744    0.0273 H   0  0  0  0  0  0  0  0  0  0  0  0
   -6.2824   -0.1720    0.0560 O   0  0  0  0  0  0  0  0  0  0  0  0
   -6.5301   -1.1047    0.0629 H   0  0  0  0  0  0  0  0  0  0  0  0
   -4.4957   -2.1531    0.0336 H   0  0  0  0  0  0  0  0  0  0  0  0
   -2.0886   -1.8599   -0.0092 H   0  0  0  0  0  0  0  0  0  0  0  0
   -0.7118    2.6104   -0.0483 H   0  0  0  0  0  0  0  0  0  0  0  0
  1  2  2  0
  2  3  1  0
  2 17  1  0
  3  4  2  0
  3  8  1  0
  4  5  1  0
  4 15  1  0
  5  6  2  0
  5 14  1  0
  6  7  1  0
  6 12  1  0
  7  8  2  0
  7 11  1  0
  8  9  1  0
  9 10  1  0
 12 13  1  0
 15 16  1  0
 16 17  2  0
 16 30  1  0
 17 18  1  0
 18 19  2  0
 18 23  1  0
 19 20  1  0
 19 29  1  0
 20 21  2  0
 20 28  1  0
 21 22  1  0
 21 26  1  0
 22 23  2  0
 22 25  1  0
 23 24  1  0
 26 27  1  0
M  END
$$$$
