
     RDKit          3D

 48 51  0  0  0  0  0  0  0  0999 V2000
    3.7595    1.1651   -2.6018 C   0  0  0  0  0  0  0  0  0  0  0  0
    3.6827    0.7005   -1.5008 C   0  0  0  0  0  0  0  0  0  0  0  0
    3.6867    0.1763   -0.1384 C   0  0  1  0  0  0  0  0  0  0  0  0
    4.7555    0.7444    0.5932 O   0  0  0  0  0  0  0  0  0  0  0  0
    4.7152    1.7024    0.5042 H   0  0  0  0  0  0  0  0  0  0  0  0
    2.2870    0.3556    0.5301 C   0  0  1  0  0  0  0  0  0  0  0  0
    1.5583    1.6627    0.2247 C   0  0  0  0  0  0  0  0  0  0  0  0
    2.0438    2.5042    0.7258 H   0  0  0  0  0  0  0  0  0  0  0  0
    1.5899    1.8514   -0.8512 H   0  0  0  0  0  0  0  0  0  0  0  0
    0.0965    1.5877    0.6764 C   0  0  0  0  0  0  0  0  0  0  0  0
   -0.3949    2.5096    0.3642 H   0  0  0  0  0  0  0  0  0  0  0  0
    0.0481    1.5434    1.7659 H   0  0  0  0  0  0  0  0  0  0  0  0
   -0.6512    0.3841    0.0877 C   0  0  1  0  0  0  0  0  0  0  0  0
   -0.6950    0.5095   -1.0012 H   0  0  0  0  0  0  0  0  0  0  0  0
    0.0959   -0.9298    0.3713 C   0  0  2  0  0  0  0  0  0  0  0  0
    1.5221   -0.7896   -0.1480 C   0  0  2  0  0  0  0  0  0  0  0  0
    2.4696   -1.9846   -0.0239 C   0  0  0  0  0  0  0  0  0  0  0  0
    2.2833   -2.7297   -0.7958 H   0  0  0  0  0  0  0  0  0  0  0  0
    2.3522   -2.4674    0.9464 H   0  0  0  0  0  0  0  0  0  0  0  0
    3.8695   -1.3635   -0.1724 C   0  0  0  0  0  0  0  0  0  0  0  0
    4.5345   -1.6380    0.6450 H   0  0  0  0  0  0  0  0  0  0  0  0
    4.3468   -1.6616   -1.1048 H   0  0  0  0  0  0  0  0  0  0  0  0
    1.4575   -0.5355   -1.2143 H   0  0  0  0  0  0  0  0  0  0  0  0
   -0.6345   -2.0851   -0.3062 C   0  0  0  0  0  0  0  0  0  0  0  0
   -2.0540   -2.1971    0.2432 C   0  0  0  0  0  0  0  0  0  0  0  0
   -2.8050   -0.9094    0.1089 C   0  0  0  0  0  0  0  0  0  0  0  0
   -4.0441   -0.8867   -0.3957 C   0  0  0  0  0  0  0  0  0  0  0  0
   -4.9087    0.2906   -0.3947 C   0  0  0  0  0  0  0  0  0  0  0  0
   -5.9758    0.3330   -0.9682 O   0  0  0  0  0  0  0  0  0  0  0  0
   -4.3783    1.4288    0.4486 C   0  0  0  0  0  0  0  0  0  0  0  0
   -2.8795    1.5898    0.2285 C   0  0  0  0  0  0  0  0  0  0  0  0
   -2.5247    2.4375    0.8157 H   0  0  0  0  0  0  0  0  0  0  0  0
   -2.7007    1.8094   -0.8271 H   0  0  0  0  0  0  0  0  0  0  0  0
   -2.1047    0.3236    0.6124 C   0  0  2  0  0  0  0  0  0  0  0  0
   -2.0645    0.2505    1.7087 H   0  0  0  0  0  0  0  0  0  0  0  0
   -4.9136    2.3469    0.2029 H   0  0  0  0  0  0  0  0  0  0  0  0
   -4.5795    1.1871    1.4964 H   0  0  0  0  0  0  0  0  0  0  0  0
   -4.4892   -1.7887   -0.7939 H   0  0  0  0  0  0  0  0  0  0  0  0
   -2.5952   -3.0013   -0.2574 H   0  0  0  0  0  0  0  0  0  0  0  0
   -1.9974   -2.4459    1.3084 H   0  0  0  0  0  0  0  0  0  0  0  0
   -0.1030   -3.0213   -0.1314 H   0  0  0  0  0  0  0  0  0  0  0  0
   -0.6715   -1.9139   -1.3842 H   0  0  0  0  0  0  0  0  0  0  0  0
    0.1111   -1.1174    1.4493 H   0  0  0  0  0  0  0  0  0  0  0  0
    2.4623    0.1855    2.0409 C   0  0  0  0  0  0  0  0  0  0  0  0
    3.0140    1.0344    2.4397 H   0  0  0  0  0  0  0  0  0  0  0  0
    1.5065    0.1334    2.5518 H   0  0  0  0  0  0  0  0  0  0  0  0
    3.0272   -0.7112    2.2720 H   0  0  0  0  0  0  0  0  0  0  0  0
    3.7978    1.5498   -3.5774 H   0  0  0  0  0  0  0  0  0  0  0  0
  1  2  3  0
  1 48  1  0
  3  2  1  6
  3  4  1  0
  3  6  1  0
  3 20  1  0
  4  5  1  0
  6  7  1  0
  6 16  1  0
  6 44  1  1
  7  8  1  0
  7  9  1  0
  7 10  1  0
 10 11  1  0
 10 12  1  0
 10 13  1  0
 13 14  1  6
 13 15  1  0
 13 34  1  0
 15 16  1  0
 15 24  1  0
 15 43  1  1
 16 17  1  0
 16 23  1  6
 17 18  1  0
 17 19  1  0
 17 20  1  0
 20 21  1  0
 20 22  1  0
 24 25  1  0
 24 41  1  0
 24 42  1  0
 25 26  1  0
 25 39  1  0
 25 40  1  0
 26 27  2  0
 26 34  1  0
 27 28  1  0
 27 38  1  0
 28 29  2  0
 28 30  1  0
 30 31  1  0
 30 36  1  0
 30 37  1  0
 31 32  1  0
 31 33  1  0
 31 34  1  0
 34 35  1  1
 44 45  1  0
 44 46  1  0
 44 47  1  0
M  END
$$$$

     RDKit          3D

 48 51  0  0  0  0  0  0  0  0999 V2000
    3.3143    1.8327   -2.3875 C   0  0  0  0  0  0  0  0  0  0  0  0
    3.3663    1.1134   -1.4315 C   0  0  0  0  0  0  0  0  0  0  0  0
    3.5265    0.2774   -0.2457 C   0  0  1  0  0  0  0  0  0  0  0  0
    4.6519    0.7044    0.4967 O   0  0  0  0  0  0  0  0  0  0  0  0
    4.5808    1.6529    0.6469 H   0  0  0  0  0  0  0  0  0  0  0  0
    2.2006    0.2212    0.5777 C   0  0  1  0  0  0  0  0  0  0  0  0
    1.4151    1.5278    0.6750 C   0  0  0  0  0  0  0  0  0  0  0  0
    1.9330    2.2443    1.3179 H   0  0  0  0  0  0  0  0  0  0  0  0
    1.3294    1.9727   -0.3196 H   0  0  0  0  0  0  0  0  0  0  0  0
    0.0106    1.2783    1.2337 C   0  0  0  0  0  0  0  0  0  0  0  0
   -0.5319    2.2243    1.2043 H   0  0  0  0  0  0  0  0  0  0  0  0
    0.0746    0.9688    2.2783 H   0  0  0  0  0  0  0  0  0  0  0  0
   -0.7628    0.2220    0.4376 C   0  0  1  0  0  0  0  0  0  0  0  0
   -0.9257    0.6061   -0.5758 H   0  0  0  0  0  0  0  0  0  0  0  0
    0.0361   -1.0916    0.3190 C   0  0  2  0  0  0  0  0  0  0  0  0
    1.3972   -0.7635   -0.2846 C   0  0  2  0  0  0  0  0  0  0  0  0
    2.3817   -1.9052   -0.5461 C   0  0  0  0  0  0  0  0  0  0  0  0
    2.1333   -2.4524   -1.4541 H   0  0  0  0  0  0  0  0  0  0  0  0
    2.3791   -2.6111    0.2845 H   0  0  0  0  0  0  0  0  0  0  0  0
    3.7424   -1.1980   -0.6728 C   0  0  0  0  0  0  0  0  0  0  0  0
    4.4967   -1.6279   -0.0157 H   0  0  0  0  0  0  0  0  0  0  0  0
    4.1253   -1.2386   -1.6915 H   0  0  0  0  0  0  0  0  0  0  0  0
    1.2165   -0.2642   -1.2457 H   0  0  0  0  0  0  0  0  0  0  0  0
   -0.7192   -2.1097   -0.5365 C   0  0  0  0  0  0  0  0  0  0  0  0
   -2.1189   -2.3801    0.0320 C   0  0  0  0  0  0  0  0  0  0  0  0
   -2.8121   -1.0628    0.1385 C   0  0  0  0  0  0  0  0  0  0  0  0
   -3.8461   -0.7199   -0.6364 C   0  0  0  0  0  0  0  0  0  0  0  0
   -4.4122    0.6271   -0.6935 C   0  0  0  0  0  0  0  0  0  0  0  0
   -5.3968    0.8968   -1.3487 O   0  0  0  0  0  0  0  0  0  0  0  0
   -3.6348    1.6766    0.0744 C   0  0  0  0  0  0  0  0  0  0  0  0
   -3.0526    1.0930    1.3547 C   0  0  0  0  0  0  0  0  0  0  0  0
   -3.8775    0.7412    1.9805 H   0  0  0  0  0  0  0  0  0  0  0  0
   -2.5239    1.8628    1.9167 H   0  0  0  0  0  0  0  0  0  0  0  0
   -2.1385   -0.1003    1.0709 C   0  0  2  0  0  0  0  0  0  0  0  0
   -1.9407   -0.6078    2.0232 H   0  0  0  0  0  0  0  0  0  0  0  0
   -2.8340    2.0343   -0.5787 H   0  0  0  0  0  0  0  0  0  0  0  0
   -4.2908    2.5220    0.2877 H   0  0  0  0  0  0  0  0  0  0  0  0
   -4.3035   -1.4447   -1.2963 H   0  0  0  0  0  0  0  0  0  0  0  0
   -2.6647   -3.0625   -0.6202 H   0  0  0  0  0  0  0  0  0  0  0  0
   -2.0244   -2.8411    1.0183 H   0  0  0  0  0  0  0  0  0  0  0  0
   -0.1582   -3.0440   -0.5807 H   0  0  0  0  0  0  0  0  0  0  0  0
   -0.8177   -1.7260   -1.5546 H   0  0  0  0  0  0  0  0  0  0  0  0
    0.1707   -1.5199    1.3172 H   0  0  0  0  0  0  0  0  0  0  0  0
    2.5380   -0.2996    1.9767 C   0  0  0  0  0  0  0  0  0  0  0  0
    1.6430   -0.5156    2.5509 H   0  0  0  0  0  0  0  0  0  0  0  0
    3.1419   -1.1992    1.9258 H   0  0  0  0  0  0  0  0  0  0  0  0
    3.1121    0.4524    2.5144 H   0  0  0  0  0  0  0  0  0  0  0  0
    3.2395    2.4429   -3.2380 H   0  0  0  0  0  0  0  0  0  0  0  0
  1  2  3  0
  1 48  1  0
  3  2  1  6
  3  4  1  0
  3  6  1  0
  3 20  1  0
  4  5  1  0
  6  7  1  0
  6 16  1  0
  6 44  1  1
  7  8  1  0
  7  9  1  0
  7 10  1  0
 10 11  1  0
 10 12  1  0
 10 13  1  0
 13 14  1  6
 13 15  1  0
 13 34  1  0
 15 16  1  0
 15 24  1  0
 15 43  1  1
 16 17  1  0
 16 23  1  6
 17 18  1  0
 17 19  1  0
 17 20  1  0
 20 21  1  0
 20 22  1  0
 24 25  1  0
 24 41  1  0
 24 42  1  0
 25 26  1  0
 25 39  1  0
 25 40  1  0
 26 27  2  0
 26 34  1  0
 27 28  1  0
 27 38  1  0
 28 29  2  0
 28 30  1  0
 30 31  1  0
 30 36  1  0
 30 37  1  0
 31 32  1  0
 31 33  1  0
 31 34  1  0
 34 35  1  1
 44 45  1  0
 44 46  1  0
 44 47  1  0
M  END
$$$$

     RDKit          3D

 48 51  0  0  0  0  0  0  0  0999 V2000
   -3.7020   -0.3422   -2.7813 C   0  0  0  0  0  0  0  0  0  0  0  0
   -3.6520   -0.2304   -1.5900 C   0  0  0  0  0  0  0  0  0  0  0  0
   -3.6835   -0.1440   -0.1330 C   0  0  1  0  0  0  0  0  0  0  0  0
   -4.7544   -0.9181    0.3705 O   0  0  0  0  0  0  0  0  0  0  0  0
   -4.7084   -1.7974   -0.0198 H   0  0  0  0  0  0  0  0  0  0  0  0
   -2.2885   -0.4980    0.4726 C   0  0  1  0  0  0  0  0  0  0  0  0
   -1.5668   -1.6892   -0.1589 C   0  0  0  0  0  0  0  0  0  0  0  0
   -2.0500   -2.6256    0.1313 H   0  0  0  0  0  0  0  0  0  0  0  0
   -1.6211   -1.6078   -1.2476 H   0  0  0  0  0  0  0  0  0  0  0  0
   -0.0920   -1.7325    0.2603 C   0  0  0  0  0  0  0  0  0  0  0  0
    0.3900   -2.5375   -0.2963 H   0  0  0  0  0  0  0  0  0  0  0  0
   -0.0055   -1.9690    1.3221 H   0  0  0  0  0  0  0  0  0  0  0  0
    0.6158   -0.4076   -0.0337 C   0  0  1  0  0  0  0  0  0  0  0  0
    0.5547   -0.2479   -1.1159 H   0  0  0  0  0  0  0  0  0  0  0  0
   -0.1043    0.7522    0.6813 C   0  0  2  0  0  0  0  0  0  0  0  0
   -1.5260    0.7936    0.1312 C   0  0  2  0  0  0  0  0  0  0  0  0
   -2.4807    1.9068    0.5739 C   0  0  0  0  0  0  0  0  0  0  0  0
   -2.3196    2.8249    0.0104 H   0  0  0  0  0  0  0  0  0  0  0  0
   -2.3447    2.1370    1.6305 H   0  0  0  0  0  0  0  0  0  0  0  0
   -3.8817    1.3309    0.2982 C   0  0  0  0  0  0  0  0  0  0  0  0
   -4.5122    1.3331    1.1858 H   0  0  0  0  0  0  0  0  0  0  0  0
   -4.4022    1.8837   -0.4827 H   0  0  0  0  0  0  0  0  0  0  0  0
   -1.4602    0.8442   -0.9633 H   0  0  0  0  0  0  0  0  0  0  0  0
    0.6672    2.0783    0.5285 C   0  0  0  0  0  0  0  0  0  0  0  0
    1.7974    1.9937   -0.4956 C   0  0  0  0  0  0  0  0  0  0  0  0
    2.7296    0.8635   -0.1905 C   0  0  0  0  0  0  0  0  0  0  0  0
    4.0429    0.9422   -0.4360 C   0  0  0  0  0  0  0  0  0  0  0  0
    4.9809   -0.1509   -0.1988 C   0  0  0  0  0  0  0  0  0  0  0  0
    6.1723   -0.0477   -0.4052 O   0  0  0  0  0  0  0  0  0  0  0  0
    4.3669   -1.4249    0.3459 C   0  0  0  0  0  0  0  0  0  0  0  0
    2.9140   -1.5973   -0.0812 C   0  0  0  0  0  0  0  0  0  0  0  0
    2.5175   -2.5108    0.3633 H   0  0  0  0  0  0  0  0  0  0  0  0
    2.8579   -1.6916   -1.1683 H   0  0  0  0  0  0  0  0  0  0  0  0
    2.0992   -0.3830    0.3675 C   0  0  2  0  0  0  0  0  0  0  0  0
    2.1522   -0.3313    1.4646 H   0  0  0  0  0  0  0  0  0  0  0  0
    4.9783   -2.2728    0.0328 H   0  0  0  0  0  0  0  0  0  0  0  0
    4.4235   -1.3634    1.4378 H   0  0  0  0  0  0  0  0  0  0  0  0
    4.4755    1.8465   -0.8421 H   0  0  0  0  0  0  0  0  0  0  0  0
    1.3731    1.8343   -1.4917 H   0  0  0  0  0  0  0  0  0  0  0  0
    2.3460    2.9365   -0.5277 H   0  0  0  0  0  0  0  0  0  0  0  0
    1.1019    2.3590    1.4898 H   0  0  0  0  0  0  0  0  0  0  0  0
   -0.0154    2.8764    0.2383 H   0  0  0  0  0  0  0  0  0  0  0  0
   -0.1551    0.5162    1.7477 H   0  0  0  0  0  0  0  0  0  0  0  0
   -2.4752   -0.7402    1.9728 C   0  0  0  0  0  0  0  0  0  0  0  0
   -2.8501    0.1440    2.4765 H   0  0  0  0  0  0  0  0  0  0  0  0
   -3.2025   -1.5365    2.1180 H   0  0  0  0  0  0  0  0  0  0  0  0
   -1.5478   -1.0409    2.4492 H   0  0  0  0  0  0  0  0  0  0  0  0
   -3.7209   -0.4151   -3.8280 H   0  0  0  0  0  0  0  0  0  0  0  0
  1  2  3  0
  1 48  1  0
  3  2  1  6
  3  4  1  0
  3  6  1  0
  3 20  1  0
  4  5  1  0
  6  7  1  0
  6 16  1  0
  6 44  1  1
  7  8  1  0
  7  9  1  0
  7 10  1  0
 10 11  1  0
 10 12  1  0
 10 13  1  0
 13 14  1  6
 13 15  1  0
 13 34  1  0
 15 16  1  0
 15 24  1  0
 15 43  1  1
 16 17  1  0
 16 23  1  6
 17 18  1  0
 17 19  1  0
 17 20  1  0
 20 21  1  0
 20 22  1  0
 24 25  1  0
 24 41  1  0
 24 42  1  0
 25 26  1  0
 25 39  1  0
 25 40  1  0
 26 27  2  0
 26 34  1  0
 27 28  1  0
 27 38  1  0
 28 29  2  0
 28 30  1  0
 30 31  1  0
 30 36  1  0
 30 37  1  0
 31 32  1  0
 31 33  1  0
 31 34  1  0
 34 35  1  1
 44 45  1  0
 44 46  1  0
 44 47  1  0
M  END
$$$$
