
     RDKit          3D

 40 42  0  0  0  0  0  0  0  0999 V2000
   -6.2416   -0.2409   -1.0904 C   0  0  0  0  0  0  0  0  0  0  0  0
   -5.0998   -0.4986   -0.1755 C   0  0  0  0  0  0  0  0  0  0  0  0
   -5.0487   -0.6664    1.1828 C   0  0  0  0  0  0  0  0  0  0  0  0
   -3.6938   -0.8654    1.5093 C   0  0  0  0  0  0  0  0  0  0  0  0
   -2.9990   -0.8091    0.3227 C   0  0  0  0  0  0  0  0  0  0  0  0
   -1.6061   -0.9203    0.0193 C   0  0  0  0  0  0  0  0  0  0  0  0
   -0.7661   -1.0570    0.9733 N   0  0  0  0  0  0  0  0  0  0  0  0
    0.5705   -1.1038    0.7537 N   0  0  0  0  0  0  0  0  0  0  0  0
    1.2817   -1.1138   -0.4171 C   0  0  0  0  0  0  0  0  0  0  0  0
    0.8086   -1.3282   -1.5126 O   0  0  0  0  0  0  0  0  0  0  0  0
    2.7422   -0.8746   -0.1903 C   0  0  0  0  0  0  0  0  0  0  0  0
    3.6587   -1.7809   -0.7092 C   0  0  0  0  0  0  0  0  0  0  0  0
    5.0157   -1.6104   -0.5093 C   0  0  0  0  0  0  0  0  0  0  0  0
    5.4709   -0.5142    0.2056 C   0  0  0  0  0  0  0  0  0  0  0  0
    4.5760    0.4182    0.6947 C   0  0  0  0  0  0  0  0  0  0  0  0
    3.2090    0.2538    0.4953 C   0  0  0  0  0  0  0  0  0  0  0  0
    2.3819    1.1981    1.0443 O   0  0  0  0  0  0  0  0  0  0  0  0
    1.2624    1.6179    0.3574 C   0  0  0  0  0  0  0  0  0  0  0  0
    1.2234    1.7080   -1.0284 C   0  0  0  0  0  0  0  0  0  0  0  0
    0.0685    2.1488   -1.6488 C   0  0  0  0  0  0  0  0  0  0  0  0
   -1.0375    2.5114   -0.8999 C   0  0  0  0  0  0  0  0  0  0  0  0
   -0.9823    2.4506    0.4825 C   0  0  0  0  0  0  0  0  0  0  0  0
    0.1632    2.0073    1.1146 C   0  0  0  0  0  0  0  0  0  0  0  0
    0.2190    1.9433    2.1899 H   0  0  0  0  0  0  0  0  0  0  0  0
   -1.8391    2.7357    1.0741 H   0  0  0  0  0  0  0  0  0  0  0  0
   -1.9397    2.8411   -1.3922 H   0  0  0  0  0  0  0  0  0  0  0  0
    0.0370    2.2026   -2.7263 H   0  0  0  0  0  0  0  0  0  0  0  0
    2.0856    1.4257   -1.6147 H   0  0  0  0  0  0  0  0  0  0  0  0
    4.9139    1.2885    1.2355 H   0  0  0  0  0  0  0  0  0  0  0  0
    6.5285   -0.3751    0.3707 H   0  0  0  0  0  0  0  0  0  0  0  0
    5.7149   -2.3291   -0.9078 H   0  0  0  0  0  0  0  0  0  0  0  0
    3.2822   -2.6286   -1.2615 H   0  0  0  0  0  0  0  0  0  0  0  0
    1.0857   -1.0352    1.6226 H   0  0  0  0  0  0  0  0  0  0  0  0
   -1.3429   -0.8559   -1.0330 H   0  0  0  0  0  0  0  0  0  0  0  0
   -3.8640   -0.5860   -0.6985 O   0  0  0  0  0  0  0  0  0  0  0  0
   -3.2672   -1.0326    2.4756 H   0  0  0  0  0  0  0  0  0  0  0  0
   -5.8801   -0.6493    1.8578 H   0  0  0  0  0  0  0  0  0  0  0  0
   -7.1762   -0.3088   -0.5422 H   0  0  0  0  0  0  0  0  0  0  0  0
   -6.2455   -0.9656   -1.9030 H   0  0  0  0  0  0  0  0  0  0  0  0
   -6.1589    0.7528   -1.5305 H   0  0  0  0  0  0  0  0  0  0  0  0
  1  2  1  0
  1 38  1  0
  1 39  1  0
  1 40  1  0
  2  3  2  0
  2 35  1  0
  3  4  1  0
  3 37  1  0
  4  5  2  0
  4 36  1  0
  5  6  1  0
  5 35  1  0
  6  7  2  0
  6 34  1  0
  7  8  1  0
  8  9  1  0
  8 33  1  0
  9 10  2  0
  9 11  1  0
 11 12  2  0
 11 16  1  0
 12 13  1  0
 12 32  1  0
 13 14  2  0
 13 31  1  0
 14 15  1  0
 14 30  1  0
 15 16  2  0
 15 29  1  0
 16 17  1  0
 17 18  1  0
 18 19  2  0
 18 23  1  0
 19 20  1  0
 19 28  1  0
 20 21  2  0
 20 27  1  0
 21 22  1  0
 21 26  1  0
 22 23  2  0
 22 25  1  0
 23 24  1  0
M  END
$$$$

     RDKit          3D

 40 42  0  0  0  0  0  0  0  0999 V2000
   -6.2770    0.1009    1.0569 C   0  0  0  0  0  0  0  0  0  0  0  0
   -5.1345    0.4711    0.1819 C   0  0  0  0  0  0  0  0  0  0  0  0
   -5.0841    0.8430   -1.1353 C   0  0  0  0  0  0  0  0  0  0  0  0
   -3.7289    1.0763   -1.4332 C   0  0  0  0  0  0  0  0  0  0  0  0
   -3.0321    0.8334   -0.2717 C   0  0  0  0  0  0  0  0  0  0  0  0
   -1.6369    0.8811    0.0370 C   0  0  0  0  0  0  0  0  0  0  0  0
   -0.7973    1.1402   -0.8921 N   0  0  0  0  0  0  0  0  0  0  0  0
    0.5396    1.1550   -0.6678 N   0  0  0  0  0  0  0  0  0  0  0  0
    1.2517    1.0640    0.4985 C   0  0  0  0  0  0  0  0  0  0  0  0
    0.7782    1.1608    1.6102 O   0  0  0  0  0  0  0  0  0  0  0  0
    2.7171    0.8817    0.2426 C   0  0  0  0  0  0  0  0  0  0  0  0
    3.6202    1.7582    0.8296 C   0  0  0  0  0  0  0  0  0  0  0  0
    4.9777    1.6348    0.6005 C   0  0  0  0  0  0  0  0  0  0  0  0
    5.4471    0.6174   -0.2143 C   0  0  0  0  0  0  0  0  0  0  0  0
    4.5661   -0.2855   -0.7777 C   0  0  0  0  0  0  0  0  0  0  0  0
    3.1991   -0.1696   -0.5480 C   0  0  0  0  0  0  0  0  0  0  0  0
    2.3786   -1.0807   -1.1595 O   0  0  0  0  0  0  0  0  0  0  0  0
    1.3022   -1.5927   -0.4646 C   0  0  0  0  0  0  0  0  0  0  0  0
    1.3418   -1.8200    0.9051 C   0  0  0  0  0  0  0  0  0  0  0  0
    0.2350   -2.3538    1.5393 C   0  0  0  0  0  0  0  0  0  0  0  0
   -0.9017   -2.6730    0.8176 C   0  0  0  0  0  0  0  0  0  0  0  0
   -0.9254   -2.4725   -0.5527 C   0  0  0  0  0  0  0  0  0  0  0  0
    0.1723   -1.9352   -1.1975 C   0  0  0  0  0  0  0  0  0  0  0  0
    0.1682   -1.7668   -2.2626 H   0  0  0  0  0  0  0  0  0  0  0  0
   -1.8062   -2.7255   -1.1229 H   0  0  0  0  0  0  0  0  0  0  0  0
   -1.7672   -3.0796    1.3189 H   0  0  0  0  0  0  0  0  0  0  0  0
    0.2672   -2.5163    2.6060 H   0  0  0  0  0  0  0  0  0  0  0  0
    2.2290   -1.5697    1.4687 H   0  0  0  0  0  0  0  0  0  0  0  0
    4.9137   -1.0966   -1.3988 H   0  0  0  0  0  0  0  0  0  0  0  0
    6.5057    0.5155   -0.3989 H   0  0  0  0  0  0  0  0  0  0  0  0
    5.6675    2.3277    1.0578 H   0  0  0  0  0  0  0  0  0  0  0  0
    3.2354    2.5455    1.4606 H   0  0  0  0  0  0  0  0  0  0  0  0
    1.0564    1.1795   -1.5381 H   0  0  0  0  0  0  0  0  0  0  0  0
   -1.3707    0.6678    1.0690 H   0  0  0  0  0  0  0  0  0  0  0  0
   -3.8968    0.4681    0.7075 O   0  0  0  0  0  0  0  0  0  0  0  0
   -3.3016    1.3780   -2.3663 H   0  0  0  0  0  0  0  0  0  0  0  0
   -5.9174    0.9383   -1.8021 H   0  0  0  0  0  0  0  0  0  0  0  0
   -6.4483    0.8724    1.8073 H   0  0  0  0  0  0  0  0  0  0  0  0
   -6.0687   -0.8320    1.5776 H   0  0  0  0  0  0  0  0  0  0  0  0
   -7.1767   -0.0142    0.4598 H   0  0  0  0  0  0  0  0  0  0  0  0
  1  2  1  0
  1 38  1  0
  1 39  1  0
  1 40  1  0
  2  3  2  0
  2 35  1  0
  3  4  1  0
  3 37  1  0
  4  5  2  0
  4 36  1  0
  5  6  1  0
  5 35  1  0
  6  7  2  0
  6 34  1  0
  7  8  1  0
  8  9  1  0
  8 33  1  0
  9 10  2  0
  9 11  1  0
 11 12  2  0
 11 16  1  0
 12 13  1  0
 12 32  1  0
 13 14  2  0
 13 31  1  0
 14 15  1  0
 14 30  1  0
 15 16  2  0
 15 29  1  0
 16 17  1  0
 17 18  1  0
 18 19  2  0
 18 23  1  0
 19 20  1  0
 19 28  1  0
 20 21  2  0
 20 27  1  0
 21 22  1  0
 21 26  1  0
 22 23  2  0
 22 25  1  0
 23 24  1  0
M  END
$$$$

     RDKit          3D

 40 42  0  0  0  0  0  0  0  0999 V2000
    6.3639    0.5804   -1.0244 C   0  0  0  0  0  0  0  0  0  0  0  0
    5.1787    0.5749   -0.1269 C   0  0  0  0  0  0  0  0  0  0  0  0
    5.0670    0.3864    1.2259 C   0  0  0  0  0  0  0  0  0  0  0  0
    3.6977    0.4909    1.5305 C   0  0  0  0  0  0  0  0  0  0  0  0
    3.0542    0.7380    0.3385 C   0  0  0  0  0  0  0  0  0  0  0  0
    1.6715    0.9235    0.0223 C   0  0  0  0  0  0  0  0  0  0  0  0
    0.8163    0.9140    0.9726 N   0  0  0  0  0  0  0  0  0  0  0  0
   -0.5159    1.0244    0.7589 N   0  0  0  0  0  0  0  0  0  0  0  0
   -1.2321    1.1003   -0.4063 C   0  0  0  0  0  0  0  0  0  0  0  0
   -0.7567    1.3221   -1.4994 O   0  0  0  0  0  0  0  0  0  0  0  0
   -2.7003    0.9255   -0.1696 C   0  0  0  0  0  0  0  0  0  0  0  0
   -3.5773    1.8776   -0.6738 C   0  0  0  0  0  0  0  0  0  0  0  0
   -4.9377    1.7779   -0.4492 C   0  0  0  0  0  0  0  0  0  0  0  0
   -5.4358    0.7092    0.2786 C   0  0  0  0  0  0  0  0  0  0  0  0
   -4.5823   -0.2697    0.7512 C   0  0  0  0  0  0  0  0  0  0  0  0
   -3.2135   -0.1782    0.5234 C   0  0  0  0  0  0  0  0  0  0  0  0
   -2.4229   -1.1675    1.0480 O   0  0  0  0  0  0  0  0  0  0  0  0
   -1.3552   -1.6441    0.3155 C   0  0  0  0  0  0  0  0  0  0  0  0
   -1.3851   -1.7372   -1.0701 C   0  0  0  0  0  0  0  0  0  0  0  0
   -0.2840   -2.2356   -1.7419 C   0  0  0  0  0  0  0  0  0  0  0  0
    0.8368   -2.6487   -1.0431 C   0  0  0  0  0  0  0  0  0  0  0  0
    0.8506   -2.5807    0.3400 C   0  0  0  0  0  0  0  0  0  0  0  0
   -0.2419   -2.0825    1.0233 C   0  0  0  0  0  0  0  0  0  0  0  0
   -0.2433   -2.0123    2.0998 H   0  0  0  0  0  0  0  0  0  0  0  0
    1.7212   -2.9024    0.8912 H   0  0  0  0  0  0  0  0  0  0  0  0
    1.6977   -3.0234   -1.5755 H   0  0  0  0  0  0  0  0  0  0  0  0
   -0.3061   -2.2945   -2.8194 H   0  0  0  0  0  0  0  0  0  0  0  0
   -2.2592   -1.4133   -1.6160 H   0  0  0  0  0  0  0  0  0  0  0  0
   -4.9550   -1.1208    1.2996 H   0  0  0  0  0  0  0  0  0  0  0  0
   -6.4958    0.6270    0.4657 H   0  0  0  0  0  0  0  0  0  0  0  0
   -5.6062    2.5297   -0.8389 H   0  0  0  0  0  0  0  0  0  0  0  0
   -3.1676    2.7041   -1.2347 H   0  0  0  0  0  0  0  0  0  0  0  0
   -1.0307    0.9038    1.6227 H   0  0  0  0  0  0  0  0  0  0  0  0
    1.4300    1.0487   -1.0297 H   0  0  0  0  0  0  0  0  0  0  0  0
    3.9653    0.7846   -0.6653 O   0  0  0  0  0  0  0  0  0  0  0  0
    3.2267    0.3999    2.4864 H   0  0  0  0  0  0  0  0  0  0  0  0
    5.8695    0.1976    1.9098 H   0  0  0  0  0  0  0  0  0  0  0  0
    7.1203    1.2691   -0.6525 H   0  0  0  0  0  0  0  0  0  0  0  0
    6.0598    0.8861   -2.0217 H   0  0  0  0  0  0  0  0  0  0  0  0
    6.8081   -0.4129   -1.0800 H   0  0  0  0  0  0  0  0  0  0  0  0
  1  2  1  0
  1 38  1  0
  1 39  1  0
  1 40  1  0
  2  3  2  0
  2 35  1  0
  3  4  1  0
  3 37  1  0
  4  5  2  0
  4 36  1  0
  5  6  1  0
  5 35  1  0
  6  7  2  0
  6 34  1  0
  7  8  1  0
  8  9  1  0
  8 33  1  0
  9 10  2  0
  9 11  1  0
 11 12  2  0
 11 16  1  0
 12 13  1  0
 12 32  1  0
 13 14  2  0
 13 31  1  0
 14 15  1  0
 14 30  1  0
 15 16  2  0
 15 29  1  0
 16 17  1  0
 17 18  1  0
 18 19  2  0
 18 23  1  0
 19 20  1  0
 19 28  1  0
 20 21  2  0
 20 27  1  0
 21 22  1  0
 21 26  1  0
 22 23  2  0
 22 25  1  0
 23 24  1  0
M  END
$$$$

     RDKit          3D

 40 42  0  0  0  0  0  0  0  0999 V2000
   -6.1809   -0.2278   -1.1235 C   0  0  0  0  0  0  0  0  0  0  0  0
   -5.0539   -0.4734   -0.1852 C   0  0  0  0  0  0  0  0  0  0  0  0
   -5.0188   -0.5995    1.1790 C   0  0  0  0  0  0  0  0  0  0  0  0
   -3.6728   -0.8225    1.5240 C   0  0  0  0  0  0  0  0  0  0  0  0
   -2.9662   -0.8224    0.3425 C   0  0  0  0  0  0  0  0  0  0  0  0
   -1.5732   -0.9646    0.0533 C   0  0  0  0  0  0  0  0  0  0  0  0
   -0.7366   -1.0610    1.0151 N   0  0  0  0  0  0  0  0  0  0  0  0
    0.6014   -1.1166    0.8004 N   0  0  0  0  0  0  0  0  0  0  0  0
    1.3124   -1.1527   -0.3701 C   0  0  0  0  0  0  0  0  0  0  0  0
    0.8429   -1.4196   -1.4558 O   0  0  0  0  0  0  0  0  0  0  0  0
    2.7664   -0.8607   -0.1627 C   0  0  0  0  0  0  0  0  0  0  0  0
    3.7091   -1.7534   -0.6589 C   0  0  0  0  0  0  0  0  0  0  0  0
    5.0617   -1.5251   -0.4891 C   0  0  0  0  0  0  0  0  0  0  0  0
    5.4863   -0.3844    0.1732 C   0  0  0  0  0  0  0  0  0  0  0  0
    4.5644    0.5325    0.6403 C   0  0  0  0  0  0  0  0  0  0  0  0
    3.2011    0.3110    0.4695 C   0  0  0  0  0  0  0  0  0  0  0  0
    2.3506    1.2472    0.9959 O   0  0  0  0  0  0  0  0  0  0  0  0
    1.2055    1.6080    0.3182 C   0  0  0  0  0  0  0  0  0  0  0  0
    1.1286    1.6369   -1.0686 C   0  0  0  0  0  0  0  0  0  0  0  0
   -0.0527    2.0239   -1.6756 C   0  0  0  0  0  0  0  0  0  0  0  0
   -1.1467    2.3961   -0.9140 C   0  0  0  0  0  0  0  0  0  0  0  0
   -1.0549    2.3947    0.4677 C   0  0  0  0  0  0  0  0  0  0  0  0
    0.1162    2.0037    1.0868 C   0  0  0  0  0  0  0  0  0  0  0  0
    0.2005    1.9855    2.1619 H   0  0  0  0  0  0  0  0  0  0  0  0
   -1.9032    2.6843    1.0692 H   0  0  0  0  0  0  0  0  0  0  0  0
   -2.0683    2.6860   -1.3953 H   0  0  0  0  0  0  0  0  0  0  0  0
   -0.1144    2.0278   -2.7532 H   0  0  0  0  0  0  0  0  0  0  0  0
    1.9812    1.3492   -1.6662 H   0  0  0  0  0  0  0  0  0  0  0  0
    4.8782    1.4353    1.1409 H   0  0  0  0  0  0  0  0  0  0  0  0
    6.5405   -0.1984    0.3126 H   0  0  0  0  0  0  0  0  0  0  0  0
    5.7815   -2.2318   -0.8721 H   0  0  0  0  0  0  0  0  0  0  0  0
    3.3577   -2.6367   -1.1702 H   0  0  0  0  0  0  0  0  0  0  0  0
    1.1144   -1.0052    1.6661 H   0  0  0  0  0  0  0  0  0  0  0  0
   -1.3053   -0.9494   -0.9999 H   0  0  0  0  0  0  0  0  0  0  0  0
   -3.8172   -0.6113   -0.6927 O   0  0  0  0  0  0  0  0  0  0  0  0
   -3.2581   -0.9680    2.4993 H   0  0  0  0  0  0  0  0  0  0  0  0
   -5.8559   -0.5377    1.8445 H   0  0  0  0  0  0  0  0  0  0  0  0
   -6.8470    0.5345   -0.7258 H   0  0  0  0  0  0  0  0  0  0  0  0
   -6.7596   -1.1389   -1.2757 H   0  0  0  0  0  0  0  0  0  0  0  0
   -5.7894    0.0974   -2.0837 H   0  0  0  0  0  0  0  0  0  0  0  0
  1  2  1  0
  1 38  1  0
  1 39  1  0
  1 40  1  0
  2  3  2  0
  2 35  1  0
  3  4  1  0
  3 37  1  0
  4  5  2  0
  4 36  1  0
  5  6  1  0
  5 35  1  0
  6  7  2  0
  6 34  1  0
  7  8  1  0
  8  9  1  0
  8 33  1  0
  9 10  2  0
  9 11  1  0
 11 12  2  0
 11 16  1  0
 12 13  1  0
 12 32  1  0
 13 14  2  0
 13 31  1  0
 14 15  1  0
 14 30  1  0
 15 16  2  0
 15 29  1  0
 16 17  1  0
 17 18  1  0
 18 19  2  0
 18 23  1  0
 19 20  1  0
 19 28  1  0
 20 21  2  0
 20 27  1  0
 21 22  1  0
 21 26  1  0
 22 23  2  0
 22 25  1  0
 23 24  1  0
M  END
$$$$

     RDKit          3D

 40 42  0  0  0  0  0  0  0  0999 V2000
   -6.1687   -0.8524   -1.0686 C   0  0  0  0  0  0  0  0  0  0  0  0
   -5.0250   -0.5872   -0.1578 C   0  0  0  0  0  0  0  0  0  0  0  0
   -4.9593    0.0439    1.0564 C   0  0  0  0  0  0  0  0  0  0  0  0
   -3.6145   -0.0204    1.4667 C   0  0  0  0  0  0  0  0  0  0  0  0
   -2.9389   -0.6901    0.4723 C   0  0  0  0  0  0  0  0  0  0  0  0
   -1.5583   -1.0155    0.2948 C   0  0  0  0  0  0  0  0  0  0  0  0
   -0.7164   -0.7137    1.2082 N   0  0  0  0  0  0  0  0  0  0  0  0
    0.6185   -0.8911    1.0451 N   0  0  0  0  0  0  0  0  0  0  0  0
    1.3206   -1.2438   -0.0770 C   0  0  0  0  0  0  0  0  0  0  0  0
    0.8431   -1.8116   -1.0377 O   0  0  0  0  0  0  0  0  0  0  0  0
    2.7712   -0.8863    0.0003 C   0  0  0  0  0  0  0  0  0  0  0  0
    3.7035   -1.8635   -0.3311 C   0  0  0  0  0  0  0  0  0  0  0  0
    5.0588   -1.5991   -0.2929 C   0  0  0  0  0  0  0  0  0  0  0  0
    5.4985   -0.3338    0.0634 C   0  0  0  0  0  0  0  0  0  0  0  0
    4.5862    0.6604    0.3588 C   0  0  0  0  0  0  0  0  0  0  0  0
    3.2185    0.4008    0.3237 C   0  0  0  0  0  0  0  0  0  0  0  0
    2.3947    1.4356    0.6797 O   0  0  0  0  0  0  0  0  0  0  0  0
    1.1978    1.6515    0.0319 C   0  0  0  0  0  0  0  0  0  0  0  0
    0.9877    1.3330   -1.3033 C   0  0  0  0  0  0  0  0  0  0  0  0
   -0.2465    1.5869   -1.8748 C   0  0  0  0  0  0  0  0  0  0  0  0
   -1.2595    2.1707   -1.1345 C   0  0  0  0  0  0  0  0  0  0  0  0
   -1.0331    2.5194    0.1863 C   0  0  0  0  0  0  0  0  0  0  0  0
    0.1905    2.2614    0.7723 C   0  0  0  0  0  0  0  0  0  0  0  0
    0.3819    2.5150    1.8031 H   0  0  0  0  0  0  0  0  0  0  0  0
   -1.8159    2.9811    0.7680 H   0  0  0  0  0  0  0  0  0  0  0  0
   -2.2226    2.3552   -1.5858 H   0  0  0  0  0  0  0  0  0  0  0  0
   -0.4126    1.3211   -2.9079 H   0  0  0  0  0  0  0  0  0  0  0  0
    1.7776    0.8826   -1.8866 H   0  0  0  0  0  0  0  0  0  0  0  0
    4.9092    1.6564    0.6184 H   0  0  0  0  0  0  0  0  0  0  0  0
    6.5549   -0.1149    0.0967 H   0  0  0  0  0  0  0  0  0  0  0  0
    5.7686   -2.3731   -0.5404 H   0  0  0  0  0  0  0  0  0  0  0  0
    3.3376   -2.8401   -0.6101 H   0  0  0  0  0  0  0  0  0  0  0  0
    1.1333   -0.5005    1.8250 H   0  0  0  0  0  0  0  0  0  0  0  0
   -1.3029   -1.4810   -0.6534 H   0  0  0  0  0  0  0  0  0  0  0  0
   -3.8069   -1.0305   -0.5134 O   0  0  0  0  0  0  0  0  0  0  0  0
   -3.1809    0.3678    2.3641 H   0  0  0  0  0  0  0  0  0  0  0  0
   -5.7751    0.4977    1.5814 H   0  0  0  0  0  0  0  0  0  0  0  0
   -5.8406   -0.7907   -2.1041 H   0  0  0  0  0  0  0  0  0  0  0  0
   -6.9616   -0.1311   -0.8932 H   0  0  0  0  0  0  0  0  0  0  0  0
   -6.5660   -1.8538   -0.9000 H   0  0  0  0  0  0  0  0  0  0  0  0
  1  2  1  0
  1 38  1  0
  1 39  1  0
  1 40  1  0
  2  3  2  0
  2 35  1  0
  3  4  1  0
  3 37  1  0
  4  5  2  0
  4 36  1  0
  5  6  1  0
  5 35  1  0
  6  7  2  0
  6 34  1  0
  7  8  1  0
  8  9  1  0
  8 33  1  0
  9 10  2  0
  9 11  1  0
 11 12  2  0
 11 16  1  0
 12 13  1  0
 12 32  1  0
 13 14  2  0
 13 31  1  0
 14 15  1  0
 14 30  1  0
 15 16  2  0
 15 29  1  0
 16 17  1  0
 17 18  1  0
 18 19  2  0
 18 23  1  0
 19 20  1  0
 19 28  1  0
 20 21  2  0
 20 27  1  0
 21 22  1  0
 21 26  1  0
 22 23  2  0
 22 25  1  0
 23 24  1  0
M  END
$$$$

     RDKit          3D

 40 42  0  0  0  0  0  0  0  0999 V2000
   -6.1806    0.9464    1.0472 C   0  0  0  0  0  0  0  0  0  0  0  0
   -5.0412    0.6232    0.1486 C   0  0  0  0  0  0  0  0  0  0  0  0
   -4.9728   -0.1055   -1.0100 C   0  0  0  0  0  0  0  0  0  0  0  0
   -3.6257   -0.0817   -1.4168 C   0  0  0  0  0  0  0  0  0  0  0  0
   -2.9518    0.6644   -0.4769 C   0  0  0  0  0  0  0  0  0  0  0  0
   -1.5725    1.0067   -0.3226 C   0  0  0  0  0  0  0  0  0  0  0  0
   -0.7287    0.6504   -1.2146 N   0  0  0  0  0  0  0  0  0  0  0  0
    0.6053    0.8477   -1.0642 N   0  0  0  0  0  0  0  0  0  0  0  0
    1.3050    1.2425    0.0453 C   0  0  0  0  0  0  0  0  0  0  0  0
    0.8218    1.8339    0.9887 O   0  0  0  0  0  0  0  0  0  0  0  0
    2.7597    0.9004   -0.0188 C   0  0  0  0  0  0  0  0  0  0  0  0
    3.6757    1.8956    0.3060 C   0  0  0  0  0  0  0  0  0  0  0  0
    5.0346    1.6497    0.2851 C   0  0  0  0  0  0  0  0  0  0  0  0
    5.4952    0.3859   -0.0488 C   0  0  0  0  0  0  0  0  0  0  0  0
    4.5998   -0.6253   -0.3365 C   0  0  0  0  0  0  0  0  0  0  0  0
    3.2285   -0.3856   -0.3159 C   0  0  0  0  0  0  0  0  0  0  0  0
    2.4230   -1.4398   -0.6572 O   0  0  0  0  0  0  0  0  0  0  0  0
    1.2268   -1.6632   -0.0112 C   0  0  0  0  0  0  0  0  0  0  0  0
    1.0022   -1.3173    1.3149 C   0  0  0  0  0  0  0  0  0  0  0  0
   -0.2322   -1.5775    1.8833 C   0  0  0  0  0  0  0  0  0  0  0  0
   -1.2297   -2.1960    1.1502 C   0  0  0  0  0  0  0  0  0  0  0  0
   -0.9869   -2.5741   -0.1595 C   0  0  0  0  0  0  0  0  0  0  0  0
    0.2359   -2.3089   -0.7433 C   0  0  0  0  0  0  0  0  0  0  0  0
    0.4396   -2.5827   -1.7667 H   0  0  0  0  0  0  0  0  0  0  0  0
   -1.7568   -3.0646   -0.7348 H   0  0  0  0  0  0  0  0  0  0  0  0
   -2.1936   -2.3843    1.5979 H   0  0  0  0  0  0  0  0  0  0  0  0
   -0.4106   -1.2893    2.9079 H   0  0  0  0  0  0  0  0  0  0  0  0
    1.7801   -0.8403    1.8930 H   0  0  0  0  0  0  0  0  0  0  0  0
    4.9392   -1.6207   -0.5780 H   0  0  0  0  0  0  0  0  0  0  0  0
    6.5549    0.1812   -0.0695 H   0  0  0  0  0  0  0  0  0  0  0  0
    5.7304    2.4371    0.5297 H   0  0  0  0  0  0  0  0  0  0  0  0
    3.2929    2.8708    0.5666 H   0  0  0  0  0  0  0  0  0  0  0  0
    1.1211    0.4300   -1.8292 H   0  0  0  0  0  0  0  0  0  0  0  0
   -1.3199    1.5365    0.5919 H   0  0  0  0  0  0  0  0  0  0  0  0
   -3.8230    1.0873    0.4731 O   0  0  0  0  0  0  0  0  0  0  0  0
   -3.1891   -0.5439   -2.2770 H   0  0  0  0  0  0  0  0  0  0  0  0
   -5.7888   -0.5942   -1.5026 H   0  0  0  0  0  0  0  0  0  0  0  0
   -5.9221    1.8008    1.6674 H   0  0  0  0  0  0  0  0  0  0  0  0
   -6.4070    0.1026    1.6995 H   0  0  0  0  0  0  0  0  0  0  0  0
   -7.0700    1.1756    0.4654 H   0  0  0  0  0  0  0  0  0  0  0  0
  1  2  1  0
  1 38  1  0
  1 39  1  0
  1 40  1  0
  2  3  2  0
  2 35  1  0
  3  4  1  0
  3 37  1  0
  4  5  2  0
  4 36  1  0
  5  6  1  0
  5 35  1  0
  6  7  2  0
  6 34  1  0
  7  8  1  0
  8  9  1  0
  8 33  1  0
  9 10  2  0
  9 11  1  0
 11 12  2  0
 11 16  1  0
 12 13  1  0
 12 32  1  0
 13 14  2  0
 13 31  1  0
 14 15  1  0
 14 30  1  0
 15 16  2  0
 15 29  1  0
 16 17  1  0
 17 18  1  0
 18 19  2  0
 18 23  1  0
 19 20  1  0
 19 28  1  0
 20 21  2  0
 20 27  1  0
 21 22  1  0
 21 26  1  0
 22 23  2  0
 22 25  1  0
 23 24  1  0
M  END
$$$$

     RDKit          3D

 40 42  0  0  0  0  0  0  0  0999 V2000
   -6.2400   -0.2748    0.8635 C   0  0  0  0  0  0  0  0  0  0  0  0
   -5.1178    0.4117    0.1689 C   0  0  0  0  0  0  0  0  0  0  0  0
   -5.0955    1.2379   -0.9252 C   0  0  0  0  0  0  0  0  0  0  0  0
   -3.7432    1.5484   -1.1589 C   0  0  0  0  0  0  0  0  0  0  0  0
   -3.0204    0.8956   -0.1863 C   0  0  0  0  0  0  0  0  0  0  0  0
   -1.6190    0.8263    0.0834 C   0  0  0  0  0  0  0  0  0  0  0  0
   -0.7909    1.3060   -0.7656 N   0  0  0  0  0  0  0  0  0  0  0  0
    0.5493    1.2339   -0.5624 N   0  0  0  0  0  0  0  0  0  0  0  0
    1.2618    1.0056    0.5832 C   0  0  0  0  0  0  0  0  0  0  0  0
    0.7901    0.9782    1.7000 O   0  0  0  0  0  0  0  0  0  0  0  0
    2.7249    0.8463    0.2989 C   0  0  0  0  0  0  0  0  0  0  0  0
    3.6399    1.6783    0.9284 C   0  0  0  0  0  0  0  0  0  0  0  0
    4.9931    1.5684    0.6645 C   0  0  0  0  0  0  0  0  0  0  0  0
    5.4418    0.6121   -0.2305 C   0  0  0  0  0  0  0  0  0  0  0  0
    4.5480   -0.2490   -0.8389 C   0  0  0  0  0  0  0  0  0  0  0  0
    3.1862   -0.1473   -0.5746 C   0  0  0  0  0  0  0  0  0  0  0  0
    2.3476   -1.0045   -1.2367 O   0  0  0  0  0  0  0  0  0  0  0  0
    1.2778   -1.5565   -0.5627 C   0  0  0  0  0  0  0  0  0  0  0  0
    1.3408   -1.8957    0.7825 C   0  0  0  0  0  0  0  0  0  0  0  0
    0.2403   -2.4688    1.3931 C   0  0  0  0  0  0  0  0  0  0  0  0
   -0.9130   -2.7192    0.6698 C   0  0  0  0  0  0  0  0  0  0  0  0
   -0.9611   -2.4059   -0.6776 C   0  0  0  0  0  0  0  0  0  0  0  0
    0.1301   -1.8288   -1.2997 C   0  0  0  0  0  0  0  0  0  0  0  0
    0.1053   -1.5714   -2.3469 H   0  0  0  0  0  0  0  0  0  0  0  0
   -1.8562   -2.6007   -1.2500 H   0  0  0  0  0  0  0  0  0  0  0  0
   -1.7725   -3.1549    1.1546 H   0  0  0  0  0  0  0  0  0  0  0  0
    0.2898   -2.7155    2.4414 H   0  0  0  0  0  0  0  0  0  0  0  0
    2.2402   -1.6978    1.3483 H   0  0  0  0  0  0  0  0  0  0  0  0
    4.8832   -1.0126   -1.5223 H   0  0  0  0  0  0  0  0  0  0  0  0
    6.4972    0.5226   -0.4460 H   0  0  0  0  0  0  0  0  0  0  0  0
    5.6931    2.2292    1.1514 H   0  0  0  0  0  0  0  0  0  0  0  0
    3.2684    2.4192    1.6199 H   0  0  0  0  0  0  0  0  0  0  0  0
    1.0625    1.4049   -1.4177 H   0  0  0  0  0  0  0  0  0  0  0  0
   -1.3359    0.3375    1.0123 H   0  0  0  0  0  0  0  0  0  0  0  0
   -3.8681    0.2085    0.6224 O   0  0  0  0  0  0  0  0  0  0  0  0
   -3.3350    2.1719   -1.9285 H   0  0  0  0  0  0  0  0  0  0  0  0
   -5.9429    1.5775   -1.4832 H   0  0  0  0  0  0  0  0  0  0  0  0
   -7.0614    0.4167    1.0408 H   0  0  0  0  0  0  0  0  0  0  0  0
   -5.8911   -0.6728    1.8110 H   0  0  0  0  0  0  0  0  0  0  0  0
   -6.6156   -1.0973    0.2538 H   0  0  0  0  0  0  0  0  0  0  0  0
  1  2  1  0
  1 38  1  0
  1 39  1  0
  1 40  1  0
  2  3  2  0
  2 35  1  0
  3  4  1  0
  3 37  1  0
  4  5  2  0
  4 36  1  0
  5  6  1  0
  5 35  1  0
  6  7  2  0
  6 34  1  0
  7  8  1  0
  8  9  1  0
  8 33  1  0
  9 10  2  0
  9 11  1  0
 11 12  2  0
 11 16  1  0
 12 13  1  0
 12 32  1  0
 13 14  2  0
 13 31  1  0
 14 15  1  0
 14 30  1  0
 15 16  2  0
 15 29  1  0
 16 17  1  0
 17 18  1  0
 18 19  2  0
 18 23  1  0
 19 20  1  0
 19 28  1  0
 20 21  2  0
 20 27  1  0
 21 22  1  0
 21 26  1  0
 22 23  2  0
 22 25  1  0
 23 24  1  0
M  END
$$$$

     RDKit          3D

 40 42  0  0  0  0  0  0  0  0999 V2000
   -6.2459   -0.3695    0.7095 C   0  0  0  0  0  0  0  0  0  0  0  0
   -5.1066    0.3730    0.1105 C   0  0  0  0  0  0  0  0  0  0  0  0
   -5.0540    1.2695   -0.9237 C   0  0  0  0  0  0  0  0  0  0  0  0
   -3.7023    1.6353   -1.0656 C   0  0  0  0  0  0  0  0  0  0  0  0
   -3.0112    0.9392   -0.1000 C   0  0  0  0  0  0  0  0  0  0  0  0
   -1.6164    0.8738    0.2123 C   0  0  0  0  0  0  0  0  0  0  0  0
   -0.7824    1.4215   -0.5865 N   0  0  0  0  0  0  0  0  0  0  0  0
    0.5563    1.3457   -0.3912 N   0  0  0  0  0  0  0  0  0  0  0  0
    1.2825    0.9471    0.7002 C   0  0  0  0  0  0  0  0  0  0  0  0
    0.8287    0.7698    1.8092 O   0  0  0  0  0  0  0  0  0  0  0  0
    2.7336    0.8046    0.3522 C   0  0  0  0  0  0  0  0  0  0  0  0
    3.6907    1.5539    1.0215 C   0  0  0  0  0  0  0  0  0  0  0  0
    5.0267    1.4624    0.6739 C   0  0  0  0  0  0  0  0  0  0  0  0
    5.4151    0.6103   -0.3470 C   0  0  0  0  0  0  0  0  0  0  0  0
    4.4788   -0.1727   -0.9964 C   0  0  0  0  0  0  0  0  0  0  0  0
    3.1362   -0.0909   -0.6462 C   0  0  0  0  0  0  0  0  0  0  0  0
    2.2438   -0.8649   -1.3422 O   0  0  0  0  0  0  0  0  0  0  0  0
    1.2269   -1.4912   -0.6502 C   0  0  0  0  0  0  0  0  0  0  0  0
    1.4084   -1.9987    0.6308 C   0  0  0  0  0  0  0  0  0  0  0  0
    0.3600   -2.6381    1.2655 C   0  0  0  0  0  0  0  0  0  0  0  0
   -0.8625   -2.7814    0.6319 C   0  0  0  0  0  0  0  0  0  0  0  0
   -1.0309   -2.2969   -0.6545 C   0  0  0  0  0  0  0  0  0  0  0  0
    0.0095   -1.6558   -1.3007 C   0  0  0  0  0  0  0  0  0  0  0  0
   -0.1084   -1.2654   -2.2996 H   0  0  0  0  0  0  0  0  0  0  0  0
   -1.9807   -2.4062   -1.1563 H   0  0  0  0  0  0  0  0  0  0  0  0
   -1.6814   -3.2669    1.1407 H   0  0  0  0  0  0  0  0  0  0  0  0
    0.5024   -3.0193    2.2653 H   0  0  0  0  0  0  0  0  0  0  0  0
    2.3596   -1.8807    1.1296 H   0  0  0  0  0  0  0  0  0  0  0  0
    4.7661   -0.8593   -1.7773 H   0  0  0  0  0  0  0  0  0  0  0  0
    6.4550    0.5403   -0.6287 H   0  0  0  0  0  0  0  0  0  0  0  0
    5.7614    2.0549    1.1969 H   0  0  0  0  0  0  0  0  0  0  0  0
    3.3674    2.2179    1.8089 H   0  0  0  0  0  0  0  0  0  0  0  0
    1.0634    1.6032   -1.2290 H   0  0  0  0  0  0  0  0  0  0  0  0
   -1.3464    0.3232    1.1103 H   0  0  0  0  0  0  0  0  0  0  0  0
   -3.8756    0.1769    0.6157 O   0  0  0  0  0  0  0  0  0  0  0  0
   -3.2751    2.3180   -1.7694 H   0  0  0  0  0  0  0  0  0  0  0  0
   -5.8828    1.6173   -1.5062 H   0  0  0  0  0  0  0  0  0  0  0  0
   -7.0510   -0.4621   -0.0142 H   0  0  0  0  0  0  0  0  0  0  0  0
   -6.6264    0.1506    1.5890 H   0  0  0  0  0  0  0  0  0  0  0  0
   -5.9177   -1.3588    1.0202 H   0  0  0  0  0  0  0  0  0  0  0  0
  1  2  1  0
  1 38  1  0
  1 39  1  0
  1 40  1  0
  2  3  2  0
  2 35  1  0
  3  4  1  0
  3 37  1  0
  4  5  2  0
  4 36  1  0
  5  6  1  0
  5 35  1  0
  6  7  2  0
  6 34  1  0
  7  8  1  0
  8  9  1  0
  8 33  1  0
  9 10  2  0
  9 11  1  0
 11 12  2  0
 11 16  1  0
 12 13  1  0
 12 32  1  0
 13 14  2  0
 13 31  1  0
 14 15  1  0
 14 30  1  0
 15 16  2  0
 15 29  1  0
 16 17  1  0
 17 18  1  0
 18 19  2  0
 18 23  1  0
 19 20  1  0
 19 28  1  0
 20 21  2  0
 20 27  1  0
 21 22  1  0
 21 26  1  0
 22 23  2  0
 22 25  1  0
 23 24  1  0
M  END
$$$$
