
     RDKit          3D

 15 16  0  0  0  0  0  0  0  0999 V2000
   -2.8970   -1.0845    0.0003 O   0  0  0  0  0  0  0  0  0  0  0  0
   -1.7825   -0.6255   -0.0001 C   0  0  0  0  0  0  0  0  0  0  0  0
   -0.6560   -1.4151    0.0003 N   0  0  0  0  0  0  0  0  0  0  0  0
    0.5935   -0.8711    0.0000 C   0  0  0  0  0  0  0  0  0  0  0  0
    1.7428   -1.5190    0.0000 N   0  0  0  0  0  0  0  0  0  0  0  0
    2.6774   -0.5559   -0.0000 N   0  0  0  0  0  0  0  0  0  0  0  0
    2.1671    0.6833   -0.0001 C   0  0  0  0  0  0  0  0  0  0  0  0
    0.7905    0.5347   -0.0002 C   0  0  0  0  0  0  0  0  0  0  0  0
   -0.3416    1.4388   -0.0002 C   0  0  0  0  0  0  0  0  0  0  0  0
   -0.3210    2.6458    0.0007 O   0  0  0  0  0  0  0  0  0  0  0  0
   -1.5464    0.7382   -0.0010 N   0  0  0  0  0  0  0  0  0  0  0  0
   -2.3853    1.3083   -0.0008 H   0  0  0  0  0  0  0  0  0  0  0  0
    2.7724    1.5655   -0.0001 H   0  0  0  0  0  0  0  0  0  0  0  0
    3.6489   -0.8251   -0.0001 H   0  0  0  0  0  0  0  0  0  0  0  0
   -0.7773   -2.4175    0.0006 H   0  0  0  0  0  0  0  0  0  0  0  0
  1  2  2  0
  2  3  1  0
  2 11  1  0
  3  4  1  0
  3 15  1  0
  4  5  2  0
  4  8  1  0
  5  6  1  0
  6  7  1  0
  6 14  1  0
  7  8  2  0
  7 13  1  0
  8  9  1  0
  9 10  2  0
  9 11  1  0
 11 12  1  0
M  END
$$$$
